TITL AB-23017-8607-32 0.0000009428 25.0671808168 -20.8886652211 0 0  5 (Fm-3m) n - 1
REM
REM Run started: at Wed Oct 4 22:08:17 BST 2023 in /home/michal/install/eddp/airss/examples/1.9
REM pp3 from code version ## 0.9.3 July 2022 commit b0220bf5cbf550a3b7
REM
REM
REM
REM Total runtime: s
REM
REM
REM ./AB.cell (3221a991823e958f573b64801876ef3d)
REM ## AIRSS Version 0.9.3 July 2022 commit b0220bf5cbf550a3b7
REM compiler GCC version 11.4.0
REM options -cpp -imultiarch x86_64-linux-gnu -mtune=generic -march=x86-64 -g -Og -fpre-include=/usr/include/finclude/math-vector-fortran.h
REM cmdline: airss.pl -pp3 -max 100 -seed AB 
REM seed 920086696 1617960051 555640364 -1454858807 -120535732 -1185407565 -140368587 62685055
REM
REM AB.pp (7d902dab443bc42eb61d9603b40dffe3)
REM 
CELL 1.54180    1.92110    4.29571    3.32744   82.58244  106.77864   77.07904
LATT -1
SFAC B  
B      1  0.7548333189246  0.5688233200639  0.6139458997964 1.0
B      1  0.5548333197773  0.1688233194070  0.8139458993831 1.0
B      1  0.9548333208250  0.9688233210046  0.4139459001939 1.0
B      1  0.1548333199430  0.3688233200281  0.2139459006241 1.0
B      1  0.3548333205301  0.7688233194964  0.0139459000025 1.0
END
