TITL AB-23017-8607-5 -0.0000008318 35.1276720938 -68.7029238920 0 0  7 (R3m) n - 1
REM
REM Run started: at Wed Oct 4 22:07:22 BST 2023 in /home/michal/install/eddp/airss/examples/1.9
REM pp3 from code version ## 0.9.3 July 2022 commit b0220bf5cbf550a3b7
REM
REM
REM
REM Total runtime: s
REM
REM
REM ./AB.cell (3221a991823e958f573b64801876ef3d)
REM ## AIRSS Version 0.9.3 July 2022 commit b0220bf5cbf550a3b7
REM compiler GCC version 11.4.0
REM options -cpp -imultiarch x86_64-linux-gnu -mtune=generic -march=x86-64 -g -Og -fpre-include=/usr/include/finclude/math-vector-fortran.h
REM cmdline: airss.pl -pp3 -max 100 -seed AB 
REM seed -1069538393 1982249638 -2023552715 873415959 1152035518 -634244717 328495920 1108167321
REM
REM AB.pp (7d902dab443bc42eb61d9603b40dffe3)
REM 
CELL 1.54180    3.45320    3.45320    3.99617  112.69004  112.69004  106.06933
LATT -1
SFAC A  B  
A      1  0.0869910869642  0.3218151303065  0.6136197135433 1.0
A      1  0.6906667774566  0.3218151258333  0.0411890986811 1.0
A      1  0.0869910837817  0.9254908217008  0.0411890993410 1.0
A      1  0.4833153984550  0.7181394403987  0.4375134041467 1.0
B      2  0.0869910832481  0.8136109275761  0.5804742946613 1.0
B      2  0.5787868831931  0.3218151251931  0.5804742938333 1.0
B      2  0.5951952869013  0.8300193289915  0.0886784957933 1.0
END
