TITL AB-23017-8607-2 0.0000007667 17.3003799250 -26.9893972229 0 0  3 (Amm2) n - 1
REM
REM Run started: at Wed Oct 4 22:07:16 BST 2023 in /home/michal/install/eddp/airss/examples/1.9
REM pp3 from code version ## 0.9.3 July 2022 commit b0220bf5cbf550a3b7
REM
REM
REM
REM Total runtime: s
REM
REM
REM ./AB.cell (3221a991823e958f573b64801876ef3d)
REM ## AIRSS Version 0.9.3 July 2022 commit b0220bf5cbf550a3b7
REM compiler GCC version 11.4.0
REM options -cpp -imultiarch x86_64-linux-gnu -mtune=generic -march=x86-64 -g -Og -fpre-include=/usr/include/finclude/math-vector-fortran.h
REM cmdline: airss.pl -pp3 -max 100 -seed AB 
REM seed 961455175 207043462 488554700 334205521 2123416349 -1197370626 1137759889 488416934
REM
REM AB.pp (7d902dab443bc42eb61d9603b40dffe3)
REM 
CELL 1.54180    2.27341    2.35769    3.43622  110.06371   90.00000   90.00000
LATT -1
SFAC A  B  
A      1  0.8771856333439  0.9941794643783  0.6156855270427 1.0
A      1  0.3771856333329  0.7070845513020  0.0414956711403 1.0
B      2  0.3771856333232  1.4081404843197  0.4436075018170 1.0
END
