TITL AB-23017-8607-81 0.0000014726 12.9064657954 -26.8939752412 0 0  3 (I4/mmm) n - 1
REM
REM Run started: at Wed Oct 4 22:09:58 BST 2023 in /home/michal/install/eddp/airss/examples/1.9
REM pp3 from code version ## 0.9.3 July 2022 commit b0220bf5cbf550a3b7
REM
REM
REM
REM Total runtime: s
REM
REM
REM ./AB.cell (3221a991823e958f573b64801876ef3d)
REM ## AIRSS Version 0.9.3 July 2022 commit b0220bf5cbf550a3b7
REM compiler GCC version 11.4.0
REM options -cpp -imultiarch x86_64-linux-gnu -mtune=generic -march=x86-64 -g -Og -fpre-include=/usr/include/finclude/math-vector-fortran.h
REM cmdline: airss.pl -pp3 -max 100 -seed AB 
REM seed 1753453617 -1599184633 -835194299 841394881 -1400481700 740897436 -671023964 -206943860
REM
REM AB.pp (7d902dab443bc42eb61d9603b40dffe3)
REM 
CELL 1.54180    2.17761    3.12712    2.17761  110.37613   90.00000   69.62387
LATT -1
SFAC A  B  
A      1  0.6868412714757  0.1706621334792  0.2547610002993 1.0
B      2  0.0236828395537  0.4969789831547  0.9179194252077 1.0
B      2  0.3499996889706  0.8443452833660  0.5916025744931 1.0
END
