TITL AB-23017-8607-42 -0.0000000091 16.9961885825 -32.0963855798 0 0  4 (I4/mmm) n - 1
REM
REM Run started: at Wed Oct 4 22:08:39 BST 2023 in /home/michal/install/eddp/airss/examples/1.9
REM pp3 from code version ## 0.9.3 July 2022 commit b0220bf5cbf550a3b7
REM
REM
REM
REM Total runtime: s
REM
REM
REM ./AB.cell (3221a991823e958f573b64801876ef3d)
REM ## AIRSS Version 0.9.3 July 2022 commit b0220bf5cbf550a3b7
REM compiler GCC version 11.4.0
REM options -cpp -imultiarch x86_64-linux-gnu -mtune=generic -march=x86-64 -g -Og -fpre-include=/usr/include/finclude/math-vector-fortran.h
REM cmdline: airss.pl -pp3 -max 100 -seed AB 
REM seed 206031781 -765811318 1469905349 -1418757388 1613279800 -206043207 1270663990 -1694011647
REM
REM AB.pp (7d902dab443bc42eb61d9603b40dffe3)
REM 
CELL 1.54180    2.57388    2.57388    3.14552  114.15053   65.84949   90.00000
LATT -1
SFAC A  B  
A      1  0.7503783259303  0.1204085285850  0.2606061998888 1.0
B      2  0.0003783552384  0.3704084932528  0.7606061371548 1.0
B      2  0.5003782951465  0.8704085593080  0.7606062632588 1.0
B      2  0.2503783236849  0.6204085188542  0.2606061996977 1.0
END
