TITL AB-23017-8607-62 0.0000013419 14.7135488235 -16.7109321768 0 0  2 (Fm-3m) n - 1
REM
REM Run started: at Wed Oct 4 22:09:19 BST 2023 in /home/michal/install/eddp/airss/examples/1.9
REM pp3 from code version ## 0.9.3 July 2022 commit b0220bf5cbf550a3b7
REM
REM
REM
REM Total runtime: s
REM
REM
REM ./AB.cell (3221a991823e958f573b64801876ef3d)
REM ## AIRSS Version 0.9.3 July 2022 commit b0220bf5cbf550a3b7
REM compiler GCC version 11.4.0
REM options -cpp -imultiarch x86_64-linux-gnu -mtune=generic -march=x86-64 -g -Og -fpre-include=/usr/include/finclude/math-vector-fortran.h
REM cmdline: airss.pl -pp3 -max 100 -seed AB 
REM seed 2029215544 1550885101 1730447885 -1874199829 1156936048 -586692947 -770278415 -17437506
REM
REM AB.pp (7d902dab443bc42eb61d9603b40dffe3)
REM 
CELL 1.54180    2.18307    2.18307    3.78119  106.77865   90.00004   60.00002
LATT -1
SFAC A  
A      1  0.5821117972766  0.2181928544054  0.8514593614607 1.0
A      1  0.0821118027234  0.2181927455946  0.3514593385393 1.0
END
