TITL AB-23017-8607-12 -0.0000000592 36.3137736170 -66.8292734154 0 0  7 (Cm) n - 1
REM
REM Run started: at Wed Oct 4 22:07:36 BST 2023 in /home/michal/install/eddp/airss/examples/1.9
REM pp3 from code version ## 0.9.3 July 2022 commit b0220bf5cbf550a3b7
REM
REM
REM
REM Total runtime: s
REM
REM
REM ./AB.cell (3221a991823e958f573b64801876ef3d)
REM ## AIRSS Version 0.9.3 July 2022 commit b0220bf5cbf550a3b7
REM compiler GCC version 11.4.0
REM options -cpp -imultiarch x86_64-linux-gnu -mtune=generic -march=x86-64 -g -Og -fpre-include=/usr/include/finclude/math-vector-fortran.h
REM cmdline: airss.pl -pp3 -max 100 -seed AB 
REM seed 1507660114 1127102314 1115193167 -2134885632 496046738 1429633970 -50360654 -322644143
REM
REM AB.pp (7d902dab443bc42eb61d9603b40dffe3)
REM 
CELL 1.54180    3.33387    3.44349    3.44349   77.44804  102.21275   77.78725
LATT -1
SFAC A  B  
A      1  0.3008580092815  0.6716445628577  0.1326575937549 1.0
A      1  0.3291845373973  0.1739148279002  0.6303873297115 1.0
A      1  0.8630148284977  0.2884727102709  0.0231687386052 1.0
A      1  0.8630148271739  0.7811334219933  0.5158294345100 1.0
B      2  0.7825832049371  0.3019945616651  0.5023075997889 1.0
B      2  0.4147483984365  0.6562066987637  0.6649714466821 1.0
B      2  0.4147483942759  0.1393307165491  0.1480954569474 1.0
END
