TITL AB-23017-8607-26 0.0000001759 8.8487149365 -21.2764011230 0 0  2 (Pm-3m) n - 1
REM
REM Run started: at Wed Oct 4 22:08:05 BST 2023 in /home/michal/install/eddp/airss/examples/1.9
REM pp3 from code version ## 0.9.3 July 2022 commit b0220bf5cbf550a3b7
REM
REM
REM
REM Total runtime: s
REM
REM
REM ./AB.cell (3221a991823e958f573b64801876ef3d)
REM ## AIRSS Version 0.9.3 July 2022 commit b0220bf5cbf550a3b7
REM compiler GCC version 11.4.0
REM options -cpp -imultiarch x86_64-linux-gnu -mtune=generic -march=x86-64 -g -Og -fpre-include=/usr/include/finclude/math-vector-fortran.h
REM cmdline: airss.pl -pp3 -max 100 -seed AB 
REM seed 342258662 252255213 1557191347 -204855848 -794681695 782782647 -586416592 651763190
REM
REM AB.pp (7d902dab443bc42eb61d9603b40dffe3)
REM 
CELL 1.54180    2.06836    2.06836    2.06836   90.00000   90.00000   90.00000
LATT -1
SFAC A  B  
A      1  0.4632769998240  0.6970573498286  0.1530660000449 1.0
B      2  0.9632770001760  0.1970573501714  0.6530659999551 1.0
END
