TITL AB-23017-8607-7 -0.0000005006 36.8620916046 -68.8695231354 0 0  8 (Cm) n - 1
REM
REM Run started: at Wed Oct 4 22:07:26 BST 2023 in /home/michal/install/eddp/airss/examples/1.9
REM pp3 from code version ## 0.9.3 July 2022 commit b0220bf5cbf550a3b7
REM
REM
REM
REM Total runtime: s
REM
REM
REM ./AB.cell (3221a991823e958f573b64801876ef3d)
REM ## AIRSS Version 0.9.3 July 2022 commit b0220bf5cbf550a3b7
REM compiler GCC version 11.4.0
REM options -cpp -imultiarch x86_64-linux-gnu -mtune=generic -march=x86-64 -g -Og -fpre-include=/usr/include/finclude/math-vector-fortran.h
REM cmdline: airss.pl -pp3 -max 100 -seed AB 
REM seed -396344496 1771659062 2103921742 -77335259 -918068072 301063963 -1887512650 383160512
REM
REM AB.pp (7d902dab443bc42eb61d9603b40dffe3)
REM 
CELL 1.54180    2.16814    4.92690    3.72148   99.73345   73.06416  102.71084
LATT -1
SFAC A  B  
A      1  0.9163288882109  0.5961759293262  0.6105396038923 1.0
A      1  0.1839904072299  0.0061930799570  0.4852337101015 1.0
A      1  0.9731124201455  0.1505034601688  0.0513000681754 1.0
B      2  0.4353192899179  0.3630817150171  0.3394645853773 1.0
B      2 -0.3067570931437  0.2496101192727  0.7101457608604 1.0
B      2  0.4437391885218  0.8757014398463  0.8352445130145 1.0
B      2  0.1904580673865  0.5110138173844  0.9771191298850 1.0
B      2  0.6658507317312  0.7561468390275  0.2714668286935 1.0
END
