TITL AB-23017-8607-45 -0.0000003022 22.0703252550 -25.0663982653 0 0  3 (Fm-3m) n - 1
REM
REM Run started: at Wed Oct 4 22:08:45 BST 2023 in /home/michal/install/eddp/airss/examples/1.9
REM pp3 from code version ## 0.9.3 July 2022 commit b0220bf5cbf550a3b7
REM
REM
REM
REM Total runtime: s
REM
REM
REM ./AB.cell (3221a991823e958f573b64801876ef3d)
REM ## AIRSS Version 0.9.3 July 2022 commit b0220bf5cbf550a3b7
REM compiler GCC version 11.4.0
REM options -cpp -imultiarch x86_64-linux-gnu -mtune=generic -march=x86-64 -g -Og -fpre-include=/usr/include/finclude/math-vector-fortran.h
REM cmdline: airss.pl -pp3 -max 100 -seed AB 
REM seed -1477638974 -648718942 2103114012 -476398725 1372014227 44907848 -677218434 -2119281849
REM
REM AB.pp (7d902dab443bc42eb61d9603b40dffe3)
REM 
CELL 1.54180    2.18307    3.08732    3.78119   65.90517  106.77866   90.00000
LATT -1
SFAC A  
A      1  0.1696919024785  0.4132913316223  0.0174729333331 1.0
A      1  0.8363585641460  0.7466246683222  0.3508062666668 1.0
A      1  0.5030252333755  0.0799580000555  0.6841396000002 1.0
END
