TITL AB-23017-8607-52 0.0000000139 34.9524144624 -62.1018100787 0 0  8 (Cmmm) n - 1
REM
REM Run started: at Wed Oct 4 22:08:58 BST 2023 in /home/michal/install/eddp/airss/examples/1.9
REM pp3 from code version ## 0.9.3 July 2022 commit b0220bf5cbf550a3b7
REM
REM
REM
REM Total runtime: s
REM
REM
REM ./AB.cell (3221a991823e958f573b64801876ef3d)
REM ## AIRSS Version 0.9.3 July 2022 commit b0220bf5cbf550a3b7
REM compiler GCC version 11.4.0
REM options -cpp -imultiarch x86_64-linux-gnu -mtune=generic -march=x86-64 -g -Og -fpre-include=/usr/include/finclude/math-vector-fortran.h
REM cmdline: airss.pl -pp3 -max 100 -seed AB 
REM seed -65153617 -920102711 -1471613003 1335452004 -242651658 1077255654 -429136913 -1812144168
REM
REM AB.pp (7d902dab443bc42eb61d9603b40dffe3)
REM 
CELL 1.54180    2.47083    3.70160    4.24618   64.15906   90.00000   90.00000
LATT -1
SFAC A  B  
A      1  0.9394280556685  0.7759303501438  0.6571457748083 1.0
A      1  0.9394280483138  0.0522193249548  0.1045678249134 1.0
B      2  0.4394280420241  0.1495422923326  0.3808567999491 1.0
B      2  0.9394280550000  0.2901178084025  0.6287708584300 1.0
B      2  0.4394280471203  0.4140748375186  0.8808567999582 1.0
B      2  0.4394280471355  0.9140748375140  0.8808567999094 1.0
B      2  0.4394280560098  0.6786073824325  0.3808568006132 1.0
B      2  0.9394280487280  0.5380318667011  0.1329427414186 1.0
END
