TITL AB-23017-8607-74 -0.0000001819 15.0403086171 -12.5331991327 0 0  3 (Fm-3m) n - 1
REM
REM Run started: at Wed Oct 4 22:09:44 BST 2023 in /home/michal/install/eddp/airss/examples/1.9
REM pp3 from code version ## 0.9.3 July 2022 commit b0220bf5cbf550a3b7
REM
REM
REM
REM Total runtime: s
REM
REM
REM ./AB.cell (3221a991823e958f573b64801876ef3d)
REM ## AIRSS Version 0.9.3 July 2022 commit b0220bf5cbf550a3b7
REM compiler GCC version 11.4.0
REM options -cpp -imultiarch x86_64-linux-gnu -mtune=generic -march=x86-64 -g -Og -fpre-include=/usr/include/finclude/math-vector-fortran.h
REM cmdline: airss.pl -pp3 -max 100 -seed AB 
REM seed 1553331572 1061450844 -1981110351 -1807774420 -1153979769 -269610477 -19239710 -1776466822
REM
REM AB.pp (7d902dab443bc42eb61d9603b40dffe3)
REM 
CELL 1.54180    1.92110    2.71685    3.32744  114.09484  106.77865   90.00000
LATT -1
SFAC B  
B      1  0.7323577000031  0.1640474338916  0.2039960333395 1.0
B      1  0.3990243666645  0.8307140997536  0.5373293666623 1.0
B      1  0.0656910333324  0.4973807663547  0.8706626999982 1.0
END
