TITL AB-23017-8607-15 -0.0000005382 17.9411061654 -30.1670761104 0 0  4 (P4/mmm) n - 1
REM
REM Run started: at Wed Oct 4 22:07:42 BST 2023 in /home/michal/install/eddp/airss/examples/1.9
REM pp3 from code version ## 0.9.3 July 2022 commit b0220bf5cbf550a3b7
REM
REM
REM
REM Total runtime: s
REM
REM
REM ./AB.cell (3221a991823e958f573b64801876ef3d)
REM ## AIRSS Version 0.9.3 July 2022 commit b0220bf5cbf550a3b7
REM compiler GCC version 11.4.0
REM options -cpp -imultiarch x86_64-linux-gnu -mtune=generic -march=x86-64 -g -Og -fpre-include=/usr/include/finclude/math-vector-fortran.h
REM cmdline: airss.pl -pp3 -max 100 -seed AB 
REM seed 781535131 1281636213 -1227402675 -262165108 -1402681322 -1693552152 -1129923063 -602596753
REM
REM AB.pp (7d902dab443bc42eb61d9603b40dffe3)
REM 
CELL 1.54180    2.18544    2.18544    3.75639   90.00000   90.00000   90.00000
LATT -1
SFAC A  B  
A      1  0.1936550109555  0.9574095988616  0.5055926645637 1.0
B      2  0.6936550437160  0.4574095967716  0.2683972895541 1.0
B      2  0.1936550425935  0.9574096023705  0.0055926372716 1.0
B      2  0.6936550027350  0.4574096019963  0.7427880086105 1.0
END
