TITL Al-30591-8583-7 0.0000000000 8000.0000000000 -283.2906661456 0 0  56 (Cs) n - 1
REM
REM Run started: at Wed Oct 4 20:26:56 BST 2023 in /home/michal/install/eddp/airss/examples/1.6
REM pp3 from code version ## 0.9.3 July 2022 commit b0220bf5cbf550a3b7
REM
REM
REM
REM Total runtime: s
REM
REM
REM ./Al.cell (8d6693cd95e8f07bd87eaa99e0f307f2)
REM ## AIRSS Version 0.9.3 July 2022 commit b0220bf5cbf550a3b7
REM compiler GCC version 11.4.0
REM options -cpp -imultiarch x86_64-linux-gnu -mtune=generic -march=x86-64 -g -Og -fpre-include=/usr/include/finclude/math-vector-fortran.h
REM cmdline: airss.pl -pp3 -cluster -max 10 -seed Al 
REM seed -1549772744 328872297 639810810 1721411134 287771178 -1250657453 -820178260 633308981
REM
REM Al.pp (e4fc5d4412d1ecf009fcd5f92cd21f1b)
REM 
CELL 1.54180   20.00000   20.00000   20.00000   90.00000   90.00000   90.00000
LATT -1
SFAC Al 
Al     1  0.6316481732223  0.5102311921248  0.6681422693786 1.0
Al     1  0.5313609906720  0.5609762435465  0.6691322658877 1.0
Al     1  0.4306144162590  0.6109158295762  0.6676164831751 1.0
Al     1  0.4369358389721  0.4985607087978  0.6687526279661 1.0
Al     1  0.4431608888133  0.3859138570701  0.6663898081189 1.0
Al     1  0.5379489233660  0.4476917201475  0.6688833532833 1.0
Al     1  0.5685819859336  0.5073957160515  0.3264564660889 1.0
Al     1  0.5612891118846  0.6196057910370  0.3280193766845 1.0
Al     1  0.4671652457431  0.5579228243092  0.3262797271386 1.0
Al     1  0.3735584081040  0.4953322291735  0.3272658629690 1.0
Al     1  0.4740017173866  0.4447722881881  0.3261167332731 1.0
Al     1  0.5749913479270  0.3951442934642  0.3274466000025 1.0
Al     1  0.4738931490689  0.6500381274224  0.3919141893404 1.0
Al     1  0.3793168371962  0.5874087442797  0.3915717215975 1.0
Al     1  0.3902842210722  0.4044447386097  0.3915024713637 1.0
Al     1  0.4919450220573  0.3539599000234  0.3911541225861 1.0
Al     1  0.6449304648476  0.4551931063816  0.3920122095404 1.0
Al     1  0.6379894706686  0.5682229434269  0.3923319088590 1.0
Al     1  0.5136301726547  0.6519534704942  0.6038523347426 1.0
Al     1  0.3606344209378  0.5514351476398  0.6029098889123 1.0
Al     1  0.3679628109895  0.4394357548829  0.6028256916518 1.0
Al     1  0.5317010616191  0.3558031967199  0.6032420823031 1.0
Al     1  0.6260526454077  0.4183295712020  0.6036725818807 1.0
Al     1  0.6149639192449  0.6013040067626  0.6041205972361 1.0
Al     1  0.2929149393472  0.4900955146090  0.5371065474601 1.0
Al     1  0.4276783108013  0.3494782955364  0.5615447833027 1.0
Al     1  0.6186707617898  0.3276214657805  0.5376144395888 1.0
Al     1  0.6734720481541  0.5131654120810  0.5636743335014 1.0
Al     1  0.5965035224637  0.6908668395624  0.5385314596358 1.0
Al     1  0.4081942157564  0.6458119471774  0.5629542849201 1.0
Al     1  0.3319822046567  0.4922728400246  0.4318062393912 1.0
Al     1  0.4091694592529  0.3149658165764  0.4567406238992 1.0
Al     1  0.5976578097964  0.3603976660359  0.4319794298526 1.0
Al     1  0.7126753586921  0.5158617217093  0.4582226764000 1.0
Al     1  0.5794681219998  0.6563814449101  0.4327873070124 1.0
Al     1  0.3869939649525  0.6783498093585  0.4574078642402 1.0
Al     1  0.5660978127621  0.5065570538082  0.5813259646750 1.0
Al     1  0.5487951623126  0.5952384906241  0.5176863825871 1.0
Al     1  0.4672827432383  0.5559213692148  0.5810699961304 1.0
Al     1  0.3997843897648  0.4968352644663  0.5167060434038 1.0
Al     1  0.4740874183047  0.4457354931356  0.5807664975718 1.0
Al     1  0.5596188314635  0.4168232035593  0.5172387027263 1.0
Al     1  0.6058515969248  0.5092867785471  0.4782436666437 1.0
Al     1  0.5315215851583  0.5602506233938  0.4143027184880 1.0
Al     1  0.4459568710444  0.5891296640491  0.4778637845903 1.0
Al     1  0.4394045474925  0.4993142950633  0.4138390465618 1.0
Al     1  0.4568916145203  0.4108070286524  0.4772282263739 1.0
Al     1  0.5382962844368  0.4500264949072  0.4140301985531 1.0
Al     1  0.3502027628145  0.4012890226040  0.4984150207183 1.0
Al     1  0.6557124484361  0.6041072949627  0.4983824297559 1.0
Al     1  0.5143427479889  0.3198837765082  0.4966524058315 1.0
Al     1  0.6668474339140  0.4211418780859  0.4979343046259 1.0
Al     1  0.4917076815845  0.6860130054373  0.4979340476501 1.0
Al     1  0.3386641591323  0.5848673024828  0.4971160933813 1.0
Al     1  0.5028273443065  0.5030034188720  0.4975450679119 1.0
Al     1  0.3461624026890  0.3365091669332  0.6337357386358 1.0
END
