TITL Al-30591-8583-2 0.0000000000 8000.0000000000 -283.6088174007 0 0  56 () n - 1
REM
REM Run started: at Wed Oct 4 20:26:48 BST 2023 in /home/michal/install/eddp/airss/examples/1.6
REM pp3 from code version ## 0.9.3 July 2022 commit b0220bf5cbf550a3b7
REM
REM
REM
REM Total runtime: s
REM
REM
REM ./Al.cell (8d6693cd95e8f07bd87eaa99e0f307f2)
REM ## AIRSS Version 0.9.3 July 2022 commit b0220bf5cbf550a3b7
REM compiler GCC version 11.4.0
REM options -cpp -imultiarch x86_64-linux-gnu -mtune=generic -march=x86-64 -g -Og -fpre-include=/usr/include/finclude/math-vector-fortran.h
REM cmdline: airss.pl -pp3 -cluster -max 10 -seed Al 
REM seed -54094351 1089574750 87283310 -1071601627 -1317923643 -1986619272 -1776123177 981096922
REM
REM Al.pp (e4fc5d4412d1ecf009fcd5f92cd21f1b)
REM 
CELL 1.54180   20.00000   20.00000   20.00000   90.00000   90.00000   90.00000
LATT -1
SFAC Al 
Al     1  0.6300555830985  0.5130132052587  0.6683553052797 1.0
Al     1  0.5294810795034  0.5634114689726  0.6695636072840 1.0
Al     1  0.4284997429502  0.6128358061699  0.6682670133437 1.0
Al     1  0.4351264562539  0.5004415938498  0.6698693047862 1.0
Al     1  0.4429955419195  0.3876210951610  0.6682890697403 1.0
Al     1  0.5366142568987  0.4504412874470  0.6699826498116 1.0
Al     1  0.5654864157578  0.5079658619283  0.3271069207388 1.0
Al     1  0.5578930135425  0.6201928064600  0.3280651896871 1.0
Al     1  0.4639441195345  0.5583023950655  0.3270289477115 1.0
Al     1  0.3705550001740  0.4955131951925  0.3285886868592 1.0
Al     1  0.4711049958401  0.4452155138921  0.3273567580878 1.0
Al     1  0.5721128852999  0.3956947488221  0.3286890601094 1.0
Al     1  0.4706764951145  0.6507796659196  0.3921979578321 1.0
Al     1  0.3763076388698  0.5880195292838  0.3924316864890 1.0
Al     1  0.3879028548841  0.4048264186899  0.3930394616787 1.0
Al     1  0.4893442734181  0.3547322168135  0.3928809767500 1.0
Al     1  0.6421283476265  0.4562296813488  0.3926424226278 1.0
Al     1  0.6349727589852  0.5693169100109  0.3923166257926 1.0
Al     1  0.5111764202101  0.6539351754470  0.6039097786409 1.0
Al     1  0.3585168324567  0.5524010738305  0.6043005127123 1.0
Al     1  0.3656192736359  0.4394289036892  0.6047078085474 1.0
Al     1  0.5303192690415  0.3588784664762  0.6047479042745 1.0
Al     1  0.6244616799728  0.4206526211098  0.6044224918309 1.0
Al     1  0.6127145973628  0.6035903002513  0.6039635722327 1.0
Al     1  0.2906069593021  0.4911521501298  0.5387757609114 1.0
Al     1  0.4238432563802  0.3520212268480  0.5641022692517 1.0
Al     1  0.6158372223133  0.3290112810481  0.5392980492692 1.0
Al     1  0.6713113477234  0.5153174525514  0.5637162670032 1.0
Al     1  0.5937054945933  0.6927035094399  0.5380018101379 1.0
Al     1  0.4055016222341  0.6471295422597  0.5635699790389 1.0
Al     1  0.3293237504782  0.4932928906205  0.4331675158828 1.0
Al     1  0.4074193484391  0.3155888031513  0.4597376047951 1.0
Al     1  0.5952734264350  0.3615542218066  0.4333178715605 1.0
Al     1  0.7100156958965  0.5173750085348  0.4581728297468 1.0
Al     1  0.5763666186560  0.6575862815605  0.4325436142133 1.0
Al     1  0.3839033720726  0.6791919147952  0.4579129305938 1.0
Al     1  0.5640258598839  0.5085894575040  0.5818887232378 1.0
Al     1  0.5461799469289  0.5968385873646  0.5178781847595 1.0
Al     1  0.4650464016349  0.5576738762076  0.5818350449188 1.0
Al     1  0.3973307089180  0.4978540140466  0.5182552891542 1.0
Al     1  0.4720294384061  0.4476638089431  0.5821017108998 1.0
Al     1  0.5575536037859  0.4186629630549  0.5182753885102 1.0
Al     1  0.6033091176709  0.5107896105953  0.4786501547878 1.0
Al     1  0.5285913972430  0.5612264763430  0.4147722167890 1.0
Al     1  0.4431400375345  0.5902026500456  0.4785442104794 1.0
Al     1  0.4365876319025  0.5000524759213  0.4150066729474 1.0
Al     1  0.4544259069045  0.4120213583857  0.4789079172614 1.0
Al     1  0.5355715792028  0.4509771522085  0.4150867023934 1.0
Al     1  0.3475375454911  0.4028182357067  0.4987107686738 1.0
Al     1  0.6530110731000  0.6058396780157  0.4980591625752 1.0
Al     1  0.5121441965308  0.3220787932145  0.4982036539222 1.0
Al     1  0.6645553659096  0.4226432922690  0.4986474803744 1.0
Al     1  0.4887174263209  0.6873077306180  0.4979558459545 1.0
Al     1  0.3360353104169  0.5857717043360  0.4983453154443 1.0
Al     1  0.5003183557095  0.5044124710955  0.4984216774162 1.0
Al     1  0.4827724496305  0.2612100402888  0.5854152642475 1.0
END
