TITL Al-30591-8583-5 0.0000000000 8000.0000000000 -283.2906661470 0 0  56 (Cs) n - 1
REM
REM Run started: at Wed Oct 4 20:26:53 BST 2023 in /home/michal/install/eddp/airss/examples/1.6
REM pp3 from code version ## 0.9.3 July 2022 commit b0220bf5cbf550a3b7
REM
REM
REM
REM Total runtime: s
REM
REM
REM ./Al.cell (8d6693cd95e8f07bd87eaa99e0f307f2)
REM ## AIRSS Version 0.9.3 July 2022 commit b0220bf5cbf550a3b7
REM compiler GCC version 11.4.0
REM options -cpp -imultiarch x86_64-linux-gnu -mtune=generic -march=x86-64 -g -Og -fpre-include=/usr/include/finclude/math-vector-fortran.h
REM cmdline: airss.pl -pp3 -cluster -max 10 -seed Al 
REM seed -564802455 1698178623 -400050930 -264271165 -395574161 2033297310 668204419 1928106788
REM
REM Al.pp (e4fc5d4412d1ecf009fcd5f92cd21f1b)
REM 
CELL 1.54180   20.00000   20.00000   20.00000   90.00000   90.00000   90.00000
LATT -1
SFAC Al 
Al     1  0.6287638744581  0.5029401163925  0.6666446466536 1.0
Al     1  0.5293624747161  0.5556950450950  0.6679924856268 1.0
Al     1  0.4281518450383  0.6049082342981  0.6679026768530 1.0
Al     1  0.4340641906953  0.4927337663521  0.6689370296776 1.0
Al     1  0.4402427548182  0.3803704307752  0.6672248154230 1.0
Al     1  0.5346717369044  0.4415964396113  0.6683061241148 1.0
Al     1  0.5628428155087  0.5008065864579  0.3257287896373 1.0
Al     1  0.5564447390471  0.6131759359668  0.3276254706263 1.0
Al     1  0.4618797003867  0.5521246433760  0.3263619250261 1.0
Al     1  0.3678564125359  0.4903028238632  0.3277449964772 1.0
Al     1  0.4678676199493  0.4389311736930  0.3258580082178 1.0
Al     1  0.5683255384328  0.3884073330933  0.3264878654025 1.0
Al     1  0.4697413464750  0.6440725569356  0.3921348959240 1.0
Al     1  0.3747464531206  0.5821962817722  0.3922212253409 1.0
Al     1  0.3844969732648  0.3991063063077  0.3915224665032 1.0
Al     1  0.4854829539197  0.3477766276611  0.3908891906125 1.0
Al     1  0.6391421359846  0.4478078697438  0.3905632174017 1.0
Al     1  0.6331437313841  0.5610175444058  0.3911102070874 1.0
Al     1  0.5095765513194  0.6451353138254  0.6025621708098 1.0
Al     1  0.3572352671670  0.5452685269659  0.6039663195273 1.0
Al     1  0.3634378068107  0.4323079504488  0.6035852784163 1.0
Al     1  0.5268286166489  0.3492588199315  0.6025606595739 1.0
Al     1  0.6217409291370  0.4108242121840  0.6023076169289 1.0
Al     1  0.6126234768744  0.5927580886615  0.6019159707799 1.0
Al     1  0.2885577453813  0.4851216600037  0.5382606137385 1.0
Al     1  0.4209195085002  0.3436454187401  0.5625411421128 1.0
Al     1  0.6129711088246  0.3202271466867  0.5362262317279 1.0
Al     1  0.6697557703490  0.5048753617089  0.5617900452625 1.0
Al     1  0.5935102058209  0.6834910298566  0.5389721733292 1.0
Al     1  0.4045124721647  0.6396946033839  0.5634533702903 1.0
Al     1  0.3269071815463  0.4875925197070  0.4324812693576 1.0
Al     1  0.4028367123173  0.3093730020244  0.4568741091470 1.0
Al     1  0.5913124784697  0.3531992163454  0.4308231944374 1.0
Al     1  0.7079140368209  0.5078797837753  0.4561632656987 1.0
Al     1  0.5756656904119  0.6496979723500  0.4324491445912 1.0
Al     1  0.3833990469179  0.6728259460909  0.4581982809868 1.0
Al     1  0.5621977618124  0.4993879236300  0.5803948850795 1.0
Al     1  0.5450528377188  0.5884266481198  0.5170385649578 1.0
Al     1  0.4636519599818  0.5494772960613  0.5810128610522 1.0
Al     1  0.3952509794292  0.4909510410634  0.5173351452164 1.0
Al     1  0.4696947639278  0.4393825121274  0.5806416785254 1.0
Al     1  0.5545943618491  0.4099591556766  0.5163359078205 1.0
Al     1  0.6012076494865  0.5021567893871  0.4771452903687 1.0
Al     1  0.5268132600293  0.5538144079818  0.4139133700564 1.0
Al     1  0.4418700537283  0.5831457292954  0.4781444860827 1.0
Al     1  0.4342072250223  0.4934994588088  0.4140162996042 1.0
Al     1  0.4513864426104  0.4046363332397  0.4774113578971 1.0
Al     1  0.5326652983079  0.4434546779031  0.4133988747912 1.0
Al     1  0.3445703305411  0.3965038734084  0.4976168189197 1.0
Al     1  0.6520014946409  0.5966562223999  0.4968751843676 1.0
Al     1  0.5079679280892  0.3134512902552  0.4965921588629 1.0
Al     1  0.6616335063093  0.4133289669395  0.4960736227775 1.0
Al     1  0.4884721134726  0.6797757881644  0.4979006686100 1.0
Al     1  0.3346900643674  0.5795094799260  0.4981238703222 1.0
Al     1  0.4982202102542  0.4965329439824  0.4971977653954 1.0
Al     1  0.5969223562996  0.6888041731389  0.6524448959708 1.0
END
