TITL Al-30591-8583-10 0.0000000000 8000.0000000000 -283.6088174007 0 0  56 () n - 1
REM
REM Run started: at Wed Oct 4 20:27:00 BST 2023 in /home/michal/install/eddp/airss/examples/1.6
REM pp3 from code version ## 0.9.3 July 2022 commit b0220bf5cbf550a3b7
REM
REM
REM
REM Total runtime: s
REM
REM
REM ./Al.cell (8d6693cd95e8f07bd87eaa99e0f307f2)
REM ## AIRSS Version 0.9.3 July 2022 commit b0220bf5cbf550a3b7
REM compiler GCC version 11.4.0
REM options -cpp -imultiarch x86_64-linux-gnu -mtune=generic -march=x86-64 -g -Og -fpre-include=/usr/include/finclude/math-vector-fortran.h
REM cmdline: airss.pl -pp3 -cluster -max 10 -seed Al 
REM seed 1731815461 620481572 -953611766 778185665 -955527028 -1804035557 1895623378 -1176411331
REM
REM Al.pp (e4fc5d4412d1ecf009fcd5f92cd21f1b)
REM 
CELL 1.54180   20.00000   20.00000   20.00000   90.00000   90.00000   90.00000
LATT -1
SFAC Al 
Al     1  0.6301112619984  0.5092560499662  0.6741978684485 1.0
Al     1  0.5295655476699  0.5596972475857  0.6754359945179 1.0
Al     1  0.4286022880447  0.6092952988301  0.6741160657297 1.0
Al     1  0.4351736038454  0.4969803740068  0.6743749338507 1.0
Al     1  0.4426953584307  0.3847118987320  0.6719966121045 1.0
Al     1  0.5366712397250  0.4465918097480  0.6744161354581 1.0
Al     1  0.5676767413112  0.5084599431767  0.3325513745454 1.0
Al     1  0.5599588994532  0.6206400533812  0.3348388833667 1.0
Al     1  0.4659348122125  0.5589697837913  0.3325100690376 1.0
Al     1  0.3729344457126  0.4952152744745  0.3325748984562 1.0
Al     1  0.4735727033780  0.4466300113573  0.3318932216203 1.0
Al     1  0.5731138659028  0.3958360691285  0.3326561579977 1.0
Al     1  0.4723714460358  0.6504768093049  0.3988301456423 1.0
Al     1  0.3779424169346  0.5876300422874  0.3975926829131 1.0
Al     1  0.3893351523342  0.4053872257154  0.3970030825786 1.0
Al     1  0.4916023092059  0.3546166342415  0.3970446208895 1.0
Al     1  0.6436592796459  0.4557147450522  0.3977005506167 1.0
Al     1  0.6366345222845  0.5689283179004  0.3988968297624 1.0
Al     1  0.5116690155988  0.6510314841092  0.6107654673172 1.0
Al     1  0.3589460238394  0.5495708100027  0.6090433793598 1.0
Al     1  0.3660739891006  0.4364617056226  0.6080216149011 1.0
Al     1  0.5302802830425  0.3549413929510  0.6080882721231 1.0
Al     1  0.6246886103104  0.4176427448024  0.6091512627482 1.0
Al     1  0.6131813797619  0.6006356101875  0.6108066715601 1.0
Al     1  0.2914070572996  0.4891568926494  0.5424110844267 1.0
Al     1  0.4247880500590  0.3485552488945  0.5668730485583 1.0
Al     1  0.6174378105945  0.3272987406056  0.5425434427140 1.0
Al     1  0.6719790764549  0.5128386091642  0.5698324354554 1.0
Al     1  0.5945854212623  0.6905607493022  0.5458224533066 1.0
Al     1  0.4062132859412  0.6447781921752  0.5697245506333 1.0
Al     1  0.3306536097759  0.4927360112781  0.4370731888300 1.0
Al     1  0.4082258902440  0.3151068049847  0.4601033045061 1.0
Al     1  0.5966313576522  0.3606912057917  0.4371811638929 1.0
Al     1  0.7112567600211  0.5161997272638  0.4644170159002 1.0
Al     1  0.5778384431758  0.6567406872723  0.4398545060188 1.0
Al     1  0.3852144015845  0.6780636433901  0.4642846650171 1.0
Al     1  0.5645856396094  0.5059255459129  0.5873127668889 1.0
Al     1  0.5471378677214  0.5949695492487  0.5242638723024 1.0
Al     1  0.4656187320080  0.5550577271514  0.5872725921294 1.0
Al     1  0.3982500202982  0.4960565288995  0.5225883667556 1.0
Al     1  0.4725584609883  0.4447950260666  0.5862808298966 1.0
Al     1  0.5583559742895  0.4165718343335  0.5226533612801 1.0
Al     1  0.6044587273081  0.5093734801239  0.4843309465184 1.0
Al     1  0.5301294471611  0.5606247824132  0.4206545877050 1.0
Al     1  0.4443274742781  0.5888707316292  0.4842659426349 1.0
Al     1  0.4381452080820  0.4996867158450  0.4197753474644 1.0
Al     1  0.4556078441863  0.4105668565238  0.4828779516390 1.0
Al     1  0.5371964242254  0.4505126788854  0.4198155571855 1.0
Al     1  0.3485906148544  0.4011952320400  0.5018899632743 1.0
Al     1  0.6540851394551  0.6041596013881  0.5051712869588 1.0
Al     1  0.5128264368132  0.3196602599633  0.5019566379513 1.0
Al     1  0.6655839348431  0.4211861470972  0.5035078098812 1.0
Al     1  0.4898169836734  0.6857106178573  0.5051046056712 1.0
Al     1  0.3371145669651  0.5842549530070  0.5033744665250 1.0
Al     1  0.5013746317176  0.5027717494779  0.5035341911332 1.0
Al     1  0.4256105116785  0.3500007330090  0.3087420613998 1.0
END
