TITL AB-20764-5019-244 0.0000000000 4458.8459578500 -1499.4708671118 0 0  183 (P1) n - 1
REM
REM Run started: at Fri Oct 6 15:28:19 BST 2023 in /home/michal/install/eddp/airss/examples/1.11
REM pp3 from code version ## 0.9.3 July 2022 commit b0220bf5cbf550a3b7
REM
REM
REM
REM Total runtime: s
REM
REM
REM ./AB.cell (a186c3e4acc5915692489c59fabd1559)
REM ## AIRSS Version 0.9.3 July 2022 commit b0220bf5cbf550a3b7
REM compiler GCC version 11.4.0
REM options -cpp -imultiarch x86_64-linux-gnu -mtune=generic -march=x86-64 -g -Og -fpre-include=/usr/include/finclude/math-vector-fortran.h
REM cmdline: airss.pl -pp3 max 100 -seed AB 
REM seed 1622190491 -877157427 164395264 504815487 -8435680 1977206932 1430556629 1587505313
REM
REM AB.pp (46f9ffe235eb1beff4ce53cde2d82919)
REM 
CELL 1.54180   16.99142   16.35000   16.05000   90.00000   90.00000   90.00000
LATT -1
SFAC A  B  
A      1  0.9448213891566  0.0993632170251  0.0814330741527 1.0
A      1  0.0559344843789  0.0989625241115  0.2479080210487 1.0
A      1  0.4410676510488  0.5969298228321  0.4034170495972 1.0
A      1  0.4907518717182  0.5435216482484  0.5908594605355 1.0
A      1  0.5643613181573  0.3794173990293  0.5807255342765 1.0
A      1  0.4421478809715  0.4016957796946  0.4218374831229 1.0
A      1  0.6084510197259  0.4986563897182  0.4164854951383 1.0
B      2  0.5140297423022  0.6781010788368  0.5152300525198 1.0
B      2  0.3635916596179  0.4540096655010  0.6137687629909 1.0
B      2  0.6181242141793  0.6081370012571  0.5380745735730 1.0
B      2  0.3511821009807  0.5535629158823  0.5313216454843 1.0
A      1  0.9455818971172  0.0989812255282  0.4143481022333 1.0
A      1  0.0569018538119  0.0995267094103  0.5814215022949 1.0
A      1  0.9456491401463  0.0993814125295  0.7484597893329 1.0
A      1  0.0559269038408  0.0998078757089  0.9149239501744 1.0
A      1  0.2778423053364  0.0993806128483  0.0815542939254 1.0
A      1  0.3890770243121  0.0991901295418  0.2485969850001 1.0
A      1  0.2784398801330  0.0987814561058  0.4149129661861 1.0
A      1  0.3887407247989  0.0984767728872  0.5816062444646 1.0
A      1  0.2783373062819  0.1003399556722  0.7482347366088 1.0
A      1  0.3889682631392  0.0999323228609  0.9150103275248 1.0
A      1  0.1113233168294  0.1994646075841  0.0811367159568 1.0
A      1  0.2222903387330  0.1986275316237  0.2477916470857 1.0
A      1  0.1112933453674  0.1988848193818  0.4144294144511 1.0
A      1  0.2225274732977  0.1997340448238  0.5812889258328 1.0
A      1  0.1117801986764  0.1999681493145  0.7479853189901 1.0
A      1  0.2224872525091  0.1999940620383  0.9143658075354 1.0
A      1  0.9442412782147  0.2992799640244  0.0811471616073 1.0
A      1  0.0548544068809  0.2984956812341  0.2474915791269 1.0
A      1  0.9438235628739  0.2987615606847  0.4145278326931 1.0
A      1  0.0559239048920  0.2992176146892  0.5811427001618 1.0
A      1  0.9447748042261  0.2993325546337  0.7479389002417 1.0
A      1  0.0554762679741  0.2994787422663  0.9142983267301 1.0
A      1  0.6113236671755  0.0992394638796  0.0815792995266 1.0
A      1  0.7224662683389  0.0990094082978  0.2476823186202 1.0
A      1  0.6122330456406  0.0979444623637  0.4139684208919 1.0
A      1  0.7242840246902  0.0981382072006  0.5815132360398 1.0
A      1  0.6124410800426  0.0982536654948  0.7494215594558 1.0
A      1  0.7224897638181  0.0992144862741  0.9154014685911 1.0
A      1  0.4442013142479  0.1994043863361  0.0816803398384 1.0
A      1  0.5554563311392  0.1986136349144  0.2473012915677 1.0
A      1  0.4453030002497  0.1992415645883  0.4150806963441 1.0
A      1  0.5568933255552  0.1914196364965  0.5816022859780 1.0
A      1  0.4455400720580  0.1997942044084  0.7481917531483 1.0
A      1  0.5555942039383  0.1989088336350  0.9157800967805 1.0
A      1  0.2780758342217  0.2992916571897  0.0807252796943 1.0
A      1  0.3888976434411  0.2991861489768  0.2494180995793 1.0
A      1  0.2773922598192  0.2982045511031  0.4143642282293 1.0
A      1  0.3897348174656  0.2966097882418  0.5817733932125 1.0
A      1  0.2784489668056  0.3009730447759  0.7469312135625 1.0
A      1  0.3891309934125  0.2995365835552  0.9137191280881 1.0
A      1  0.1104298922071  0.3991204167553  0.0805138088555 1.0
A      1  0.2205961034523  0.3973788779558  0.2457408373585 1.0
A      1  0.1087819373272  0.3981493845886  0.4137551871707 1.0
A      1  0.2210184905399  0.4004069475759  0.5789129697059 1.0
A      1  0.1110627424624  0.3999302595614  0.7473582902798 1.0
A      1  0.2217501189584  0.3995110350315  0.9138700240692 1.0
A      1  0.9439585106884  0.4991532930345  0.0812227208120 1.0
A      1  0.0551513196765  0.4988894077222  0.2477115874368 1.0
A      1  0.9432259179862  0.4989535449218  0.4143823351976 1.0
A      1  0.0537812341521  0.4990434115435  0.5811641335704 1.0
A      1  0.9434139742579  0.4990683520016  0.7480706197635 1.0
A      1  0.0548840010017  0.4992993541942  0.9147136025830 1.0
A      1  0.7779795145283  0.1991635996470  0.0814672712106 1.0
A      1  0.8890304925996  0.1988589534995  0.2476886690243 1.0
A      1  0.7788975077467  0.1980908990913  0.4138907554443 1.0
A      1  0.8914593101697  0.1981065869827  0.5813873137654 1.0
A      1  0.7793407233533  0.1981826756208  0.7489570804171 1.0
A      1  0.8893103861054  0.1993000512101  0.9149905852467 1.0
A      1  0.6110194085927  0.2993411472375  0.0816889307051 1.0
A      1  0.7223796035482  0.2990575231200  0.2472870469428 1.0
A      1  0.6122250545603  0.2963504549627  0.4118681680763 1.0
A      1  0.7278721614892  0.2945649982378  0.5813810122171 1.0
A      1  0.6129522377290  0.2965622053605  0.7505740510084 1.0
A      1  0.7226375175024  0.2989196857888  0.9156391811317 1.0
A      1  0.4446344109080  0.3985559649206  0.0811716984632 1.0
A      1  0.5544263490282  0.3992857864901  0.2495473818684 1.0
A      1  0.4457528582193  0.4014022126290  0.7460589580084 1.0
A      1  0.5554733545959  0.3991812126334  0.9140703471963 1.0
A      1  0.2765498929063  0.4992670402051  0.0808670855391 1.0
A      1  0.3872791936153  0.4971686696664  0.2448951439972 1.0
A      1  0.2723028691972  0.4961362135147  0.4085368279548 1.0
A      1  0.2772731026538  0.5009428370232  0.7469092046308 1.0
A      1  0.3878077005549  0.4982467479659  0.9167566850539 1.0
A      1  0.1101188547022  0.5992310581722  0.0813059511357 1.0
A      1  0.2214054193505  0.5995518652481  0.2472706878381 1.0
A      1  0.1094475141362  0.5991121571030  0.4146581868121 1.0
A      1  0.2157037278776  0.6010150129824  0.5840061520116 1.0
A      1  0.1086623125643  0.5996147217214  0.7494175480036 1.0
A      1  0.2215236600825  0.5995183383935  0.9152547491435 1.0
A      1  0.9438785665906  0.6990874316861  0.0813394769691 1.0
A      1  0.0552322620815  0.6991742619061  0.2481210261412 1.0
A      1  0.9439292272722  0.6991133252328  0.4146022822657 1.0
A      1  0.0535120184444  0.7002183488197  0.5818331985480 1.0
A      1  0.9430618702670  0.6995076005234  0.7482362621038 1.0
A      1  0.0549586023839  0.6998077389975  0.9152465889099 1.0
A      1  0.7776225319188  0.3993769890055  0.0813357266214 1.0
A      1  0.8884848276767  0.3989572170555  0.2479907057317 1.0
A      1  0.7767371639825  0.3986410506865  0.4147955315774 1.0
A      1  0.8893415069579  0.3988116371117  0.5812094139437 1.0
A      1  0.7775195797821  0.3983305194985  0.7481226366005 1.0
A      1  0.8886358602465  0.3992221771838  0.9146550383796 1.0
A      1  0.6109791855841  0.4986353132844  0.0811447943387 1.0
A      1  0.7216387986432  0.4992176159626  0.2486245470319 1.0
A      1  0.7221039832111  0.4966626834728  0.5821144139923 1.0
A      1  0.6097639442144  0.4988592805006  0.7454861134635 1.0
A      1  0.7217047338609  0.4988695330282  0.9136282275191 1.0
A      1  0.4439467682328  0.5993872894937  0.0812937682162 1.0
A      1  0.5561710414598  0.5992770444830  0.2453941026770 1.0
A      1  0.4383897793817  0.6047359878025  0.7604891163809 1.0
A      1  0.5557962698938  0.5990460318061  0.9155082870141 1.0
A      1  0.2762637336591  0.6996093727617  0.0822642057591 1.0
A      1  0.3879037837494  0.7005130909263  0.2461696480723 1.0
A      1  0.2775135713125  0.6973296053757  0.4167405832606 1.0
A      1  0.3814239759298  0.7039909249114  0.5883685435032 1.0
A      1  0.2736758095452  0.7016077619995  0.7515338376841 1.0
A      1  0.3866968478178  0.7022662387215  0.9194569458518 1.0
A      1  0.1104743914912  0.7994462891562  0.0821529309995 1.0
A      1  0.2219438305945  0.7992463012110  0.2492672623565 1.0
A      1  0.1110345185203  0.7988263610112  0.4150853880312 1.0
A      1  0.2194216966430  0.8012578991348  0.5823574930721 1.0
A      1  0.1093306027899  0.8001832977597  0.7488176720640 1.0
A      1  0.2208234676371  0.8009766606218  0.9162191117830 1.0
A      1  0.9445719487580  0.8994535784766  0.0813951392881 1.0
A      1  0.0560059109161  0.8994133928747  0.2482129931436 1.0
A      1  0.9457952211439  0.8996548026250  0.4144559896868 1.0
A      1  0.0558026023594  0.9006001799341  0.5816891340692 1.0
A      1  0.9444808107658  0.8998515368291  0.7485888875154 1.0
A      1  0.0552375789038  0.9001410490416  0.9152471246663 1.0
A      1  0.7774289880589  0.5986858725191  0.0799845633817 1.0
A      1  0.8888256666913  0.5988520284943  0.2479134916873 1.0
A      1  0.7770327456011  0.5987713371812  0.4155301800072 1.0
A      1  0.8884364689013  0.5990899182111  0.5813395508433 1.0
A      1  0.7768976603941  0.5990100495749  0.7473457734820 1.0
A      1  0.8883642234525  0.5993564044996  0.9143268718714 1.0
A      1  0.6111474889195  0.6995714324949  0.0803247530514 1.0
A      1  0.7248496414545  0.6993896959578  0.2441930170113 1.0
A      1  0.6178576167269  0.7029571929316  0.4046212432426 1.0
A      1  0.7277262935531  0.7050438275405  0.5819546577188 1.0
A      1  0.6087209501188  0.6963281794280  0.7430748405430 1.0
A      1  0.7215146799133  0.6992934564955  0.9131227418450 1.0
A      1  0.4445283738376  0.8004640595912  0.0817939696810 1.0
A      1  0.5552100584765  0.8001605471898  0.2461335182471 1.0
A      1  0.4460049777481  0.7971457077456  0.4167530199550 1.0
A      1  0.5595858645165  0.8066090167975  0.5856809002564 1.0
A      1  0.4440084482100  0.8017075608355  0.7502502418128 1.0
A      1  0.5554302422070  0.7987371071207  0.9141969204500 1.0
A      1  0.2777066644802  0.8994146174892  0.0824250807084 1.0
A      1  0.3890182796839  0.8993546634777  0.2493182290885 1.0
A      1  0.2785796003017  0.8981507381619  0.4156642744363 1.0
A      1  0.3890054800357  0.9002424626593  0.5820975902960 1.0
A      1  0.2774660502410  0.9003621758275  0.7487164445099 1.0
A      1  0.3884266709304  0.9007825885244  0.9156965815126 1.0
A      1  0.1113410828194  0.9994162325274  0.0816559919769 1.0
A      1  0.2226379850826  0.9990406414901  0.2485575293469 1.0
A      1  0.1121614691864  0.9989891271052  0.4148253926731 1.0
A      1  0.2225798130741  0.9999585642544  0.5817416442538 1.0
A      1  0.1115564640627  0.9998958732452  0.7484773564250 1.0
A      1  0.2221949147161  0.0002659727304  0.9151771804530 1.0
A      1  0.7780499285714  0.7994798855751  0.0801339490682 1.0
A      1  0.8898243104533  0.7996491818083  0.2473897994889 1.0
A      1  0.7804687201194  0.8008140891453  0.4136721903021 1.0
A      1  0.8908935103616  0.8012010338288  0.5816055787006 1.0
A      1  0.7775485995062  0.7999339422215  0.7489780607720 1.0
A      1  0.8888816195488  0.7995513187847  0.9147583782841 1.0
A      1  0.6114135439018  0.8995291892798  0.0809356320528 1.0
A      1  0.7225162076901  0.8990380316792  0.2475707343185 1.0
A      1  0.6122321971145  0.8996724568239  0.4146390066673 1.0
A      1  0.7249039626236  0.9016395211049  0.5815519677068 1.0
A      1  0.6124603975249  0.8999066030582  0.7505204099795 1.0
A      1  0.7225506748703  0.8996951522948  0.9153882962630 1.0
A      1  0.4444119579883  0.9997376695276  0.0821501041647 1.0
A      1  0.5557755956237  0.9991117534216  0.2479268265528 1.0
A      1  0.4452666563922  0.9986609751819  0.4152842623804 1.0
A      1  0.5565567585438  0.9990284106057  0.5820815771000 1.0
A      1  0.4450583144871  0.0002199073670  0.7485599332242 1.0
A      1  0.5553592878647  0.9992765374915  0.9156342459129 1.0
A      1  0.7781544880702  0.9993744234746  0.0816046912188 1.0
A      1  0.8893097578848  0.9992220683262  0.2478483309099 1.0
A      1  0.7791500462935  0.9993496954846  0.4141204907958 1.0
A      1  0.8905779615338  0.9999516946964  0.5814015960872 1.0
A      1  0.7790441367915  0.9994377189727  0.7487873390825 1.0
A      1  0.8891613035067  0.9996937872603  0.9151517195720 1.0
END
