TITL AB-20764-5019-518 0.0000000000 4458.8459578500 -1495.6836589125 0 0  183 (P1) n - 1
REM
REM Run started: at Fri Oct 6 15:38:39 BST 2023 in /home/michal/install/eddp/airss/examples/1.11
REM pp3 from code version ## 0.9.3 July 2022 commit b0220bf5cbf550a3b7
REM
REM
REM
REM Total runtime: s
REM
REM
REM ./AB.cell (a186c3e4acc5915692489c59fabd1559)
REM ## AIRSS Version 0.9.3 July 2022 commit b0220bf5cbf550a3b7
REM compiler GCC version 11.4.0
REM options -cpp -imultiarch x86_64-linux-gnu -mtune=generic -march=x86-64 -g -Og -fpre-include=/usr/include/finclude/math-vector-fortran.h
REM cmdline: airss.pl -pp3 max 100 -seed AB 
REM seed 495069371 1201740404 -1714678942 -786006552 230667654 -1564486598 -1917090267 838882465
REM
REM AB.pp (46f9ffe235eb1beff4ce53cde2d82919)
REM 
CELL 1.54180   16.99142   16.35000   16.05000   90.00000   90.00000   90.00000
LATT -1
SFAC A  B  
A      1  0.9430023292563  0.0993993459020  0.0838957273112 1.0
A      1  0.0541540097059  0.0992322740003  0.2504523023960 1.0
A      1  0.5445732167386  0.3994145519252  0.5738721562181 1.0
A      1  0.3841052045288  0.5035683340562  0.5875977675691 1.0
A      1  0.6147668352340  0.5012452041823  0.4170775940222 1.0
A      1  0.4392966361753  0.4371543308033  0.4160633690734 1.0
A      1  0.5586517426372  0.5972994116332  0.5901252942801 1.0
B      2  0.3870973637871  0.5961245725958  0.3734093413021 1.0
B      2  0.4898843211122  0.3094837985045  0.3474965366426 1.0
B      2  0.4846894885861  0.6050285130966  0.4475472434520 1.0
B      2  0.6628033976561  0.4002178523897  0.6659966478475 1.0
A      1  0.9451074516156  0.0986474211894  0.4171148992550 1.0
A      1  0.0561316142178  0.0987342823569  0.5839203002944 1.0
A      1  0.9439036359668  0.0989456761117  0.7511023237168 1.0
A      1  0.0542575441722  0.0994271099725  0.9172108407873 1.0
A      1  0.2761301963627  0.0997078995343  0.0842010977947 1.0
A      1  0.3874046028332  0.0995989963190  0.2518171206677 1.0
A      1  0.2753463061461  0.0976801815659  0.4175220649953 1.0
A      1  0.3869157961789  0.0958463299355  0.5873864577823 1.0
A      1  0.2758189941171  0.0988133356188  0.7510834645845 1.0
A      1  0.3868997773509  0.0988564688431  0.9176111206155 1.0
A      1  0.1091386876955  0.1992579757825  0.0835682912316 1.0
A      1  0.2194340215840  0.1988481149139  0.2502339246983 1.0
A      1  0.1111800698416  0.1997013424971  0.4171101478728 1.0
A      1  0.2220295566518  0.1989894091224  0.5829397049837 1.0
A      1  0.1105810637012  0.1991279668624  0.7501813395166 1.0
A      1  0.2208314321928  0.1990096139175  0.9163671003071 1.0
A      1  0.9428713785787  0.2992818730282  0.0842528693209 1.0
A      1  0.0536727202330  0.2991712047045  0.2501935940232 1.0
A      1  0.9439058128668  0.2987711947643  0.4176026943184 1.0
A      1  0.0555740754100  0.2990073326575  0.5839965384169 1.0
A      1  0.9451675237469  0.2985257315475  0.7511452310349 1.0
A      1  0.0549206985975  0.2991749004426  0.9171843259750 1.0
A      1  0.6098837460848  0.0991654599765  0.0851606125682 1.0
A      1  0.7209080895023  0.0994678884889  0.2508344846227 1.0
A      1  0.6107667909434  0.0986914665634  0.4181020148381 1.0
A      1  0.7219394025409  0.0974066579553  0.5844283775948 1.0
A      1  0.6099435231200  0.0968893597170  0.7516684940396 1.0
A      1  0.7208016775185  0.0996300949230  0.9178602364025 1.0
A      1  0.4424643313062  0.1990794199945  0.0836248070067 1.0
A      1  0.5543144267100  0.1991890692021  0.2508018593610 1.0
A      1  0.4410251187449  0.1875308691676  0.4249278825964 1.0
A      1  0.5560687560118  0.1999978211865  0.5864447546379 1.0
A      1  0.4417183477148  0.1978729401311  0.7507683603776 1.0
A      1  0.5531898315750  0.1974023781420  0.9205617584621 1.0
A      1  0.2739717872024  0.2997301572448  0.0803433408487 1.0
A      1  0.3807376636543  0.2995684081939  0.2422802613563 1.0
A      1  0.2811431485905  0.3014256984819  0.4147104357340 1.0
A      1  0.3864440564617  0.2990741760965  0.5820321181658 1.0
A      1  0.2768563886237  0.2994888339088  0.7496289313172 1.0
A      1  0.3876935806282  0.2992990958111  0.9158031410496 1.0
A      1  0.1082950805357  0.3997189572481  0.0831422414182 1.0
A      1  0.2180970169536  0.3998999375369  0.2489661737729 1.0
A      1  0.1083371793010  0.3982095681492  0.4168596426513 1.0
A      1  0.2208918072969  0.3991332385414  0.5833884461931 1.0
A      1  0.1101439387327  0.3994962014037  0.7502054221207 1.0
A      1  0.2206642065418  0.3994390595922  0.9156718097730 1.0
A      1  0.9429073533589  0.5002872174732  0.0843006482768 1.0
A      1  0.0538165706077  0.5000455240794  0.2505271056169 1.0
A      1  0.9435524113046  0.4999932392733  0.4174880088206 1.0
A      1  0.0553127901885  0.4994878602504  0.5836243400278 1.0
A      1  0.9450728365391  0.5004364367162  0.7510204905497 1.0
A      1  0.0548961243577  0.4999460985799  0.9171885125620 1.0
A      1  0.7764192657076  0.1994835933275  0.0845923358597 1.0
A      1  0.8880781954303  0.1994243018190  0.2501471854218 1.0
A      1  0.7803529769191  0.1963639729297  0.4157541207908 1.0
A      1  0.8915574746900  0.1972858713064  0.5843806022580 1.0
A      1  0.7770844618691  0.1991818218418  0.7511688785994 1.0
A      1  0.8877918964695  0.1995605808883  0.9175527774270 1.0
A      1  0.6097374274112  0.2996449735712  0.0846128413074 1.0
A      1  0.7212280662402  0.3000015971208  0.2509927462703 1.0
A      1  0.6196435639948  0.2982639586155  0.4216015763835 1.0
A      1  0.7295026862012  0.2924794255017  0.5806341464143 1.0
A      1  0.6067500371800  0.2919279733080  0.7586232256190 1.0
A      1  0.7215095379212  0.2994578349892  0.9192701663838 1.0
A      1  0.4427478355759  0.3994026181824  0.0809363647822 1.0
A      1  0.5566146977107  0.4053812121058  0.2457641096069 1.0
A      1  0.4447564074001  0.3994765840807  0.7491845348634 1.0
A      1  0.5545640068178  0.3995785452470  0.9189762882346 1.0
A      1  0.2742058335511  0.4996515950305  0.0805776165132 1.0
A      1  0.3833242948847  0.4988471278961  0.2417804263193 1.0
A      1  0.2671382225045  0.5011148259109  0.4171365376315 1.0
A      1  0.2758270400502  0.4995464023527  0.7511561951949 1.0
A      1  0.3877407475492  0.4997748233000  0.9161666077599 1.0
A      1  0.1089581908182  0.6000637304882  0.0835148586946 1.0
A      1  0.2196704536008  0.6004210599022  0.2495842111975 1.0
A      1  0.1068986921824  0.6011674602468  0.4169567675320 1.0
A      1  0.2193893736810  0.6006239622751  0.5844032967070 1.0
A      1  0.1099108247250  0.6001446003770  0.7505734211238 1.0
A      1  0.2206735721653  0.6002933853234  0.9162245517230 1.0
A      1  0.9429839599758  0.7002928742983  0.0837093376202 1.0
A      1  0.0538102592350  0.7004446668755  0.2500486014905 1.0
A      1  0.9435493524322  0.7012740862434  0.4170475526208 1.0
A      1  0.0548558213414  0.7007282413218  0.5842157117929 1.0
A      1  0.9434067435103  0.7001482164061  0.7510932036278 1.0
A      1  0.0541080828936  0.6999253983945  0.9171879377150 1.0
A      1  0.7763303526107  0.4000186797436  0.0850365546173 1.0
A      1  0.8882278820021  0.3997949071043  0.2504379560715 1.0
A      1  0.7801186070333  0.4001097801508  0.4164711261657 1.0
A      1  0.8897604347250  0.3994547736146  0.5851445696043 1.0
A      1  0.7836232138912  0.3993879187530  0.7569272288703 1.0
A      1  0.8898178795180  0.3996201160628  0.9198965097315 1.0
A      1  0.6099568662714  0.5021338064499  0.0840401081661 1.0
A      1  0.7219647455542  0.5014305465890  0.2503175116064 1.0
A      1  0.7285719314745  0.5061718438330  0.5779386964270 1.0
A      1  0.6069074707218  0.5066689874962  0.7605619548553 1.0
A      1  0.7219156591199  0.4999407374673  0.9195330541106 1.0
A      1  0.4423655518235  0.6003976332576  0.0834011908554 1.0
A      1  0.5485356388017  0.6012682324645  0.2572197048231 1.0
A      1  0.4421578666613  0.6013878734828  0.7521781889420 1.0
A      1  0.5531377275753  0.6025021343241  0.9209886081529 1.0
A      1  0.2753445318468  0.6998208463808  0.0828974671565 1.0
A      1  0.3852727111440  0.7012313579227  0.2477579390812 1.0
A      1  0.2741825918178  0.6999912243149  0.4173117770950 1.0
A      1  0.3896633512078  0.6971221353124  0.5808538826263 1.0
A      1  0.2767662242274  0.6999028392283  0.7496766495296 1.0
A      1  0.3866558929566  0.7005155783133  0.9174793238282 1.0
A      1  0.1094235159144  0.8000163823349  0.0835921721381 1.0
A      1  0.2198609664267  0.8000968191823  0.2501345717304 1.0
A      1  0.1095588685439  0.8003372829424  0.4171840504580 1.0
A      1  0.2214617521021  0.7992994579308  0.5840797679348 1.0
A      1  0.1101049330553  0.7997543590709  0.7507067485614 1.0
A      1  0.2204639809393  0.7999178558392  0.9169035635646 1.0
A      1  0.9429155401776  0.8998436820960  0.0840840418408 1.0
A      1  0.0537680274972  0.8998640909441  0.2503926396902 1.0
A      1  0.9436121649154  0.8999148170506  0.4172064700611 1.0
A      1  0.0547990668320  0.8996030134774  0.5840870668069 1.0
A      1  0.9436574765475  0.8995726844229  0.7510180050540 1.0
A      1  0.0539680206812  0.8996995288576  0.9174153879637 1.0
A      1  0.7768871087543  0.6007344927180  0.0844038324831 1.0
A      1  0.8883370008930  0.6004102394637  0.2501530592778 1.0
A      1  0.7795445526369  0.6024860704083  0.4151413448732 1.0
A      1  0.8911010351449  0.6014390837176  0.5840675787326 1.0
A      1  0.7768039218600  0.5992415678860  0.7505912523604 1.0
A      1  0.8878559389613  0.5997464903329  0.9173005593490 1.0
A      1  0.6092883070510  0.7002815545751  0.0864652604581 1.0
A      1  0.7198645650555  0.7001326321137  0.2510171910791 1.0
A      1  0.6119812489628  0.6994861392890  0.4195950800149 1.0
A      1  0.7228396456850  0.7016737823716  0.5848663774943 1.0
A      1  0.6105813243863  0.7021858209707  0.7525796159536 1.0
A      1  0.7208498495634  0.6997053333063  0.9182430431129 1.0
A      1  0.4429066671718  0.8002006954481  0.0837554439865 1.0
A      1  0.5538439318895  0.8002786362735  0.2513397864552 1.0
A      1  0.4435689121972  0.7918102832527  0.4160199564169 1.0
A      1  0.5548170423218  0.7987565611708  0.5845434026679 1.0
A      1  0.4432097959270  0.7993508742395  0.7506598119641 1.0
A      1  0.5540080394684  0.8004406317326  0.9183943222986 1.0
A      1  0.2762278311396  0.8996198757339  0.0839193377332 1.0
A      1  0.3871980681084  0.8993970201201  0.2506823862835 1.0
A      1  0.2768109469268  0.8981713792708  0.4171655646265 1.0
A      1  0.3880842065605  0.8967200969127  0.5838856886024 1.0
A      1  0.2767074626565  0.8994082864466  0.7507609527833 1.0
A      1  0.3871466728207  0.8995750946789  0.9177021209194 1.0
A      1  0.1096411057330  0.9996022115565  0.0839427736659 1.0
A      1  0.2207999556600  0.9992430599969  0.2504526921847 1.0
A      1  0.1102933239671  0.9990323523728  0.4170635823676 1.0
A      1  0.2212839404400  0.9982103269860  0.5841033358184 1.0
A      1  0.1100649557257  0.9991520489264  0.7508778339178 1.0
A      1  0.2205664559384  0.9993150147656  0.9176003478364 1.0
A      1  0.7761827615842  0.8000520433882  0.0843747869437 1.0
A      1  0.8870696794545  0.7999823701210  0.2505271154725 1.0
A      1  0.7772068522461  0.8006116666741  0.4174845111740 1.0
A      1  0.8884258548039  0.8004660052816  0.5842633113077 1.0
A      1  0.7773091339108  0.7998623870501  0.7515466292749 1.0
A      1  0.8874555380775  0.7998206971329  0.9177391191247 1.0
A      1  0.6096873186680  0.8998517046366  0.0848552347674 1.0
A      1  0.7206358683166  0.8998838102114  0.2509951882062 1.0
A      1  0.6100552452833  0.8984923413750  0.4180573708760 1.0
A      1  0.7212568474780  0.8995705822554  0.5846581586612 1.0
A      1  0.6102174315266  0.8994383032884  0.7511613811455 1.0
A      1  0.7208109736969  0.8997235606033  0.9178367057685 1.0
A      1  0.4428501668593  0.9997424657690  0.0847109684500 1.0
A      1  0.5539613397029  0.9996283319214  0.2516480611137 1.0
A      1  0.4432469307892  0.9934601173513  0.4180075754023 1.0
A      1  0.5541919137458  0.9990940788911  0.5843782983489 1.0
A      1  0.4432763383572  0.9981276048169  0.7517881513653 1.0
A      1  0.5540043968378  0.9990276721318  0.9184575868239 1.0
A      1  0.7764210790567  0.9996504827229  0.0842551690630 1.0
A      1  0.8873770307878  0.9997435401375  0.2507179382636 1.0
A      1  0.7771447413678  0.9987361023037  0.4175129979502 1.0
A      1  0.8885597228573  0.9991153665344  0.5841535181281 1.0
A      1  0.7772554993533  0.9992765305316  0.7512816842528 1.0
A      1  0.8874942862467  0.9996332451403  0.9176289337241 1.0
END
