TITL AB-20764-5019-302 0.0000000000 4458.8459578500 -1497.8050939127 0 0  183 (P1) n - 1
REM
REM Run started: at Fri Oct 6 15:30:33 BST 2023 in /home/michal/install/eddp/airss/examples/1.11
REM pp3 from code version ## 0.9.3 July 2022 commit b0220bf5cbf550a3b7
REM
REM
REM
REM Total runtime: s
REM
REM
REM ./AB.cell (a186c3e4acc5915692489c59fabd1559)
REM ## AIRSS Version 0.9.3 July 2022 commit b0220bf5cbf550a3b7
REM compiler GCC version 11.4.0
REM options -cpp -imultiarch x86_64-linux-gnu -mtune=generic -march=x86-64 -g -Og -fpre-include=/usr/include/finclude/math-vector-fortran.h
REM cmdline: airss.pl -pp3 max 100 -seed AB 
REM seed -308659679 -1426089029 -899425175 2099309894 -107977486 783891923 517277425 -1038246293
REM
REM AB.pp (46f9ffe235eb1beff4ce53cde2d82919)
REM 
CELL 1.54180   16.99142   16.35000   16.05000   90.00000   90.00000   90.00000
LATT -1
SFAC A  B  
A      1  0.9465613943072  0.1008536679120  0.0827622686757 1.0
A      1  0.0574714098385  0.1008397145216  0.2496103457613 1.0
A      1  0.3801559720075  0.5023518182984  0.5821564531588 1.0
A      1  0.5305907261999  0.4002567432692  0.5223621555833 1.0
A      1  0.4461098463713  0.5982100784331  0.4166126804047 1.0
A      1  0.6212662093053  0.5099402634412  0.4046144417759 1.0
A      1  0.5568672871578  0.6027936014302  0.5792316881535 1.0
B      2  0.3910059799387  0.3942868101458  0.4485393279206 1.0
B      2  0.4775697069061  0.4418928482666  0.3717995613663 1.0
B      2  0.5102555603507  0.4731668980735  0.6586480266892 1.0
B      2  0.5099737569981  0.3290896317247  0.6593243817243 1.0
A      1  0.9459272646734  0.1003540402326  0.4162123708275 1.0
A      1  0.0548581028260  0.1004622604000  0.5832282185673 1.0
A      1  0.9452185945575  0.1006882303230  0.7494918573679 1.0
A      1  0.0567382022788  0.1008835329676  0.9166572574117 1.0
A      1  0.2795223119613  0.1016327011807  0.0838255142145 1.0
A      1  0.3903971439938  0.1035616407048  0.2517718863736 1.0
A      1  0.2792205187349  0.1018108962728  0.4174075951280 1.0
A      1  0.3895984650995  0.1021069381191  0.5834899889616 1.0
A      1  0.2788103377065  0.1015377470379  0.7502693499414 1.0
A      1  0.3900709435588  0.1009041945435  0.9169204351845 1.0
A      1  0.1125051499323  0.2012914856986  0.0836184908578 1.0
A      1  0.2238006971053  0.2012556364875  0.2501411700166 1.0
A      1  0.1100210046375  0.2002597167858  0.4163905343062 1.0
A      1  0.2188471966055  0.1992535677509  0.5838565117048 1.0
A      1  0.1101982195229  0.2003727673254  0.7504116505841 1.0
A      1  0.2225016374676  0.2005747840125  0.9181090242627 1.0
A      1  0.9464142786020  0.3011522137972  0.0827943453808 1.0
A      1  0.0577633046747  0.3012319298685  0.2497233316605 1.0
A      1  0.9454345508886  0.3014034777556  0.4159036635091 1.0
A      1  0.0544611082988  0.3011581090152  0.5830747394857 1.0
A      1  0.9456938443297  0.3011950855878  0.7495684798048 1.0
A      1  0.0575598739520  0.3013571867318  0.9167522016641 1.0
A      1  0.6132981039606  0.1009170464743  0.0821556961975 1.0
A      1  0.7241110299017  0.1015900708139  0.2491774151013 1.0
A      1  0.6122701217527  0.0998030998716  0.4150422229746 1.0
A      1  0.7231777348463  0.1017021219530  0.5822402428030 1.0
A      1  0.6119545676389  0.1022838953092  0.7490759059888 1.0
A      1  0.7235775064213  0.1018763789634  0.9153634791482 1.0
A      1  0.4456331537722  0.2017391432372  0.0858432839450 1.0
A      1  0.5569985913596  0.1999513198920  0.2465168220628 1.0
A      1  0.4461358582174  0.2098144403790  0.4183285564115 1.0
A      1  0.5570296050761  0.1999112078399  0.5799499241753 1.0
A      1  0.4457258350719  0.2035575462259  0.7508556769387 1.0
A      1  0.5562498607024  0.2011548388946  0.9178629926832 1.0
A      1  0.2786648413040  0.3019532556341  0.0867249631196 1.0
A      1  0.3921197785919  0.3066131906235  0.2555598843786 1.0
A      1  0.2723727619518  0.2991458932852  0.4162853937866 1.0
A      1  0.3788349568167  0.2995380912902  0.5851740908649 1.0
A      1  0.2732871605916  0.2996820334112  0.7519482277484 1.0
A      1  0.3876967780162  0.2981411838221  0.9239597813661 1.0
A      1  0.1120901210082  0.4016902116542  0.0833152268864 1.0
A      1  0.2228009032787  0.4020310550482  0.2504199911406 1.0
A      1  0.1100414953999  0.4018625243981  0.4163044789300 1.0
A      1  0.2182430673633  0.4015719043988  0.5833393645669 1.0
A      1  0.1101045920670  0.4016554705963  0.7504195947135 1.0
A      1  0.2238508374488  0.4017643293020  0.9178493952666 1.0
A      1  0.9463971388195  0.5022607660852  0.0826647591020 1.0
A      1  0.0576227608613  0.5023034004193  0.2494602560335 1.0
A      1  0.9456611970714  0.5020529959481  0.4158727453251 1.0
A      1  0.0545525886099  0.5020281806093  0.5830647049301 1.0
A      1  0.9457349111609  0.5020982582978  0.7495508209185 1.0
A      1  0.0575785721626  0.5020942962405  0.9166128063823 1.0
A      1  0.7807912580781  0.1998819496663  0.0819487612795 1.0
A      1  0.8922614559194  0.2006624878669  0.2490853279122 1.0
A      1  0.7820551641603  0.1996802198945  0.4156621670438 1.0
A      1  0.8887237426698  0.2019396822876  0.5827620022853 1.0
A      1  0.7805514166097  0.2008466083609  0.7489866656212 1.0
A      1  0.8914046037032  0.2011426839781  0.9159520755373 1.0
A      1  0.6141100651353  0.3007188370148  0.0815382202549 1.0
A      1  0.7289117424032  0.3009656959721  0.2446064333807 1.0
A      1  0.6210659790720  0.2941500963258  0.4030850520771 1.0
A      1  0.7177738232887  0.3032012168695  0.5815773402953 1.0
A      1  0.6200147203720  0.3009646509631  0.7586470825837 1.0
A      1  0.7268337941421  0.3017313638459  0.9188119331251 1.0
A      1  0.4459466243584  0.4021890527265  0.0852171482864 1.0
A      1  0.5627333231917  0.4009071404085  0.2442985355879 1.0
A      1  0.4302056747805  0.4015559812085  0.7688525037736 1.0
A      1  0.5560635806200  0.4017396751446  0.9192244144159 1.0
A      1  0.2777429531097  0.5021615002190  0.0851853664082 1.0
A      1  0.3896814297404  0.5031717557294  0.2494802823932 1.0
A      1  0.2767124299332  0.5015084909204  0.4149267878663 1.0
A      1  0.2737853440149  0.5034616973683  0.7508274975786 1.0
A      1  0.3877306928772  0.5055733985930  0.9234026808564 1.0
A      1  0.1122672827641  0.6023638730872  0.0832498256050 1.0
A      1  0.2232533356377  0.6029396465653  0.2499104976812 1.0
A      1  0.1115911374813  0.6020778585081  0.4161637594567 1.0
A      1  0.2198631121380  0.6031528547416  0.5828880053751 1.0
A      1  0.1105188567402  0.6027923421815  0.7499221889176 1.0
A      1  0.2224684748982  0.6030115763387  0.9172584952438 1.0
A      1  0.9464495256846  0.7025483864747  0.0826681535211 1.0
A      1  0.0573541067988  0.7025890171503  0.2495765327601 1.0
A      1  0.9465370803635  0.7026086559707  0.4161528320045 1.0
A      1  0.0553920381421  0.7023305923913  0.5829466180957 1.0
A      1  0.9453879633994  0.7025032064446  0.7493491684748 1.0
A      1  0.0567145063065  0.7025213503439  0.9163901856772 1.0
A      1  0.7813731072517  0.4017969942678  0.0819816026479 1.0
A      1  0.8929953254921  0.4017561197845  0.2490114277659 1.0
A      1  0.7801744940528  0.4017769156880  0.4143346267691 1.0
A      1  0.8878666794376  0.4016190356234  0.5821882016910 1.0
A      1  0.7820102292587  0.4016219071069  0.7497120119875 1.0
A      1  0.8924930335591  0.4016941659346  0.9161804141480 1.0
A      1  0.6138950275642  0.5027925584730  0.0816974927059 1.0
A      1  0.7283420711506  0.5022474126056  0.2450064378712 1.0
A      1  0.7181296380190  0.5001275515199  0.5818823472422 1.0
A      1  0.6198964101249  0.5021969941897  0.7583667010779 1.0
A      1  0.7266982393581  0.5016235494582  0.9187485808506 1.0
A      1  0.4460038860715  0.6033183490988  0.0842218974502 1.0
A      1  0.5566710299477  0.6028844984307  0.2466976796837 1.0
A      1  0.4456993608430  0.5993379221692  0.7498190347007 1.0
A      1  0.5563789868183  0.6022994360074  0.9173135678306 1.0
A      1  0.2794249324234  0.7021409779302  0.0833104397455 1.0
A      1  0.3902692868949  0.7025068789043  0.2505558754917 1.0
A      1  0.2793859595861  0.7012327320865  0.4167959651117 1.0
A      1  0.3897138393253  0.7010621481863  0.5831436382826 1.0
A      1  0.2788476920722  0.7017096575628  0.7497354642702 1.0
A      1  0.3900474779100  0.7028202059363  0.9161736272056 1.0
A      1  0.1130503090242  0.8020579171528  0.0830491047353 1.0
A      1  0.2239936229555  0.8022997943697  0.2499978448752 1.0
A      1  0.1130335677591  0.8017643649608  0.4165162185514 1.0
A      1  0.2232621112289  0.8018588234237  0.5831905361823 1.0
A      1  0.1123647692014  0.8019622523739  0.7496323148385 1.0
A      1  0.2235107993614  0.8021821740901  0.9164332858946 1.0
A      1  0.9462871408005  0.9016886187943  0.0827748847334 1.0
A      1  0.0571913811081  0.9017324412164  0.2497468204043 1.0
A      1  0.9460842024298  0.9015336072065  0.4162000198459 1.0
A      1  0.0562621547546  0.9014307288691  0.5830290969651 1.0
A      1  0.9453565421916  0.9015966634284  0.7494048345231 1.0
A      1  0.0566625130878  0.9016996126740  0.9162885147156 1.0
A      1  0.7806264729688  0.6034223847077  0.0820198857629 1.0
A      1  0.8920367284390  0.6026346563467  0.2489644432829 1.0
A      1  0.7823651454270  0.6038769772428  0.4156490629422 1.0
A      1  0.8888600261910  0.6012856661957  0.5827859916887 1.0
A      1  0.7805567649759  0.6024222623813  0.7490245138130 1.0
A      1  0.8913355274617  0.6022197626474  0.9159261764876 1.0
A      1  0.6132777718445  0.7026835938783  0.0821630000470 1.0
A      1  0.7239315711829  0.7016850046307  0.2491275296519 1.0
A      1  0.6125081422906  0.7042791978777  0.4148442538485 1.0
A      1  0.7231270945393  0.7014189745276  0.5821445384664 1.0
A      1  0.6118811135592  0.7008691203192  0.7487196245317 1.0
A      1  0.7235503092852  0.7014994321087  0.9153140584329 1.0
A      1  0.4460082991983  0.8023486153845  0.0830412800006 1.0
A      1  0.5568578718415  0.8022131846817  0.2488646985364 1.0
A      1  0.4455795677606  0.8014401932012  0.4165513695020 1.0
A      1  0.5564865757061  0.8018238905791  0.5827787166918 1.0
A      1  0.4455772108381  0.8011646773658  0.7493803008201 1.0
A      1  0.5569437516208  0.8017758455151  0.9157439403587 1.0
A      1  0.2796315209697  0.9018958608021  0.0832554080564 1.0
A      1  0.3905186197491  0.9025768399897  0.2501628832739 1.0
A      1  0.2795386829507  0.9017038765879  0.4166922963488 1.0
A      1  0.3900551871382  0.9017070095015  0.5830769918739 1.0
A      1  0.2792362159991  0.9016254563401  0.7498827955068 1.0
A      1  0.3904295085763  0.9018750830828  0.9163420536059 1.0
A      1  0.1131152652858  0.0014435621085  0.0831715863594 1.0
A      1  0.2241203055054  0.0018237226329  0.2502172536934 1.0
A      1  0.1128434414339  0.0011940884909  0.4166564009686 1.0
A      1  0.2230779736602  0.0010412034171  0.5834605664511 1.0
A      1  0.1122993179493  0.0012642728531  0.7497918085931 1.0
A      1  0.2235193687290  0.0013809113548  0.9166336152273 1.0
A      1  0.7794955500515  0.8021786615327  0.0824770468097 1.0
A      1  0.8903235780385  0.8019568683343  0.2493495431725 1.0
A      1  0.7792921498811  0.8023717985096  0.4157940703160 1.0
A      1  0.8893381244942  0.8016631350484  0.5826554533061 1.0
A      1  0.7784217415220  0.8017933092974  0.7490766009196 1.0
A      1  0.8898805035725  0.8018876731941  0.9159619777168 1.0
A      1  0.6126186831586  0.9018437402542  0.0823519356572 1.0
A      1  0.7234595368855  0.9016540506967  0.2491503248663 1.0
A      1  0.6119161847921  0.9019544081085  0.4158836079945 1.0
A      1  0.7228535307985  0.9015292486886  0.5824814334426 1.0
A      1  0.6119235051078  0.9015951403416  0.7493516616928 1.0
A      1  0.7233643489462  0.9016773971436  0.9158349721186 1.0
A      1  0.4459862773822  0.0022192954335  0.0835081172499 1.0
A      1  0.5568858756970  0.0013861951110  0.2490204078748 1.0
A      1  0.4455943985331  0.0034776983635  0.4167698520503 1.0
A      1  0.5565225334000  0.0012794021760  0.5829670106004 1.0
A      1  0.4455593818078  0.0021417542935  0.7496309947664 1.0
A      1  0.5569110538620  0.0016258772167  0.9158969028487 1.0
A      1  0.7795285867968  0.0012089114868  0.0824930025333 1.0
A      1  0.8903539841637  0.0012863970933  0.2493503231818 1.0
A      1  0.7790837903978  0.0010041324409  0.4158219752428 1.0
A      1  0.8891845117424  0.0012818275791  0.5827232982191 1.0
A      1  0.7783930636779  0.0013882339322  0.7491430426672 1.0
A      1  0.8898923605831  0.0014506928572  0.9160313954413 1.0
END
