TITL AB-20764-5019-398 0.0000000000 4458.8459578500 -1493.7776082096 0 0  183 (P1) n - 1
REM
REM Run started: at Fri Oct 6 15:34:18 BST 2023 in /home/michal/install/eddp/airss/examples/1.11
REM pp3 from code version ## 0.9.3 July 2022 commit b0220bf5cbf550a3b7
REM
REM
REM
REM Total runtime: s
REM
REM
REM ./AB.cell (a186c3e4acc5915692489c59fabd1559)
REM ## AIRSS Version 0.9.3 July 2022 commit b0220bf5cbf550a3b7
REM compiler GCC version 11.4.0
REM options -cpp -imultiarch x86_64-linux-gnu -mtune=generic -march=x86-64 -g -Og -fpre-include=/usr/include/finclude/math-vector-fortran.h
REM cmdline: airss.pl -pp3 max 100 -seed AB 
REM seed 135018934 1546231668 -907508177 1908296355 254639894 1125814857 2003673461 -1506317003
REM
REM AB.pp (46f9ffe235eb1beff4ce53cde2d82919)
REM 
CELL 1.54180   16.99142   16.35000   16.05000   90.00000   90.00000   90.00000
LATT -1
SFAC A  B  
A      1  0.9437707771178  0.1009201125427  0.0848114236341 1.0
A      1  0.0552570960373  0.1005724364573  0.2516282763954 1.0
A      1  0.5517303928072  0.6014695398532  0.5778256535091 1.0
A      1  0.4518135275923  0.4640550150073  0.4259774297154 1.0
A      1  0.5451265101654  0.4085268074573  0.6035870622280 1.0
A      1  0.3798947689355  0.5036284187838  0.5966166576402 1.0
A      1  0.6225388935225  0.5160897596826  0.4076346034503 1.0
B      2  0.4599764019302  0.6304289123825  0.4017632750029 1.0
B      2  0.4812760537305  0.3256768004907  0.3560652021978 1.0
B      2  0.4929421759604  0.3210179145717  0.4844134782317 1.0
B      2  0.6563091246838  0.4002909269721  0.5023291619102 1.0
A      1  0.9466107996127  0.1004452514951  0.4182101942055 1.0
A      1  0.0558407886705  0.1006184335444  0.5849184791214 1.0
A      1  0.9439747199023  0.1006874750971  0.7518922050560 1.0
A      1  0.0544403013393  0.1007855870048  0.9183005621058 1.0
A      1  0.2762633780502  0.1010023665388  0.0845286532836 1.0
A      1  0.3866169348411  0.0986369265066  0.2498107375834 1.0
A      1  0.2758148596369  0.0992586657885  0.4183052374190 1.0
A      1  0.3877968507467  0.1004060640376  0.5863446602395 1.0
A      1  0.2764626569816  0.1013790137860  0.7515718906298 1.0
A      1  0.3873597273682  0.1006390213581  0.9176487083734 1.0
A      1  0.1094210078369  0.2007727286301  0.0848635548598 1.0
A      1  0.2205403517106  0.2000387861368  0.2519364439457 1.0
A      1  0.1127379703209  0.2018707583407  0.4184145988096 1.0
A      1  0.2209801944668  0.2009210282589  0.5845577553568 1.0
A      1  0.1092519903751  0.2009607751448  0.7515194448771 1.0
A      1  0.2202335548193  0.2001470749258  0.9182181557213 1.0
A      1  0.9435837725596  0.3011008572814  0.0842853992793 1.0
A      1  0.0555093760751  0.3006518343256  0.2512647574138 1.0
A      1  0.9462836342353  0.3007429759106  0.4180868601213 1.0
A      1  0.0544375172406  0.3010392996694  0.5853365689458 1.0
A      1  0.9427492271348  0.3013066925516  0.7514882629858 1.0
A      1  0.0545342866983  0.3009934279976  0.9182430850453 1.0
A      1  0.6103658054989  0.1012298237668  0.0843797385859 1.0
A      1  0.7208458419908  0.1026996885869  0.2517958463577 1.0
A      1  0.6113276368486  0.0957537062158  0.4180879816356 1.0
A      1  0.7217570575898  0.0998723079873  0.5847271673369 1.0
A      1  0.6101502969810  0.1019225638543  0.7508677245692 1.0
A      1  0.7210093100792  0.1011093416947  0.9182603719183 1.0
A      1  0.4429855850995  0.1998664424650  0.0824608423563 1.0
A      1  0.5513196619262  0.2014708653295  0.2478272648264 1.0
A      1  0.4421177481929  0.1870240454868  0.4176906633036 1.0
A      1  0.5552505931891  0.2040497309114  0.5836999663094 1.0
A      1  0.4434681566650  0.2015462483742  0.7525205602954 1.0
A      1  0.5545318030362  0.2014291465470  0.9181989324186 1.0
A      1  0.2739376239031  0.3009453421011  0.0827331199466 1.0
A      1  0.3823558595146  0.2989438625612  0.2425287221084 1.0
A      1  0.2859685871408  0.3038551891062  0.4179361670608 1.0
A      1  0.3829312538414  0.3015761737105  0.5916968248152 1.0
A      1  0.2738752842563  0.3010866303556  0.7541582098102 1.0
A      1  0.3865637053190  0.3003460326526  0.9202029128425 1.0
A      1  0.1089565729807  0.4014968190901  0.0850879069885 1.0
A      1  0.2204080657935  0.4009626877452  0.2516738116296 1.0
A      1  0.1114071253577  0.4003484945424  0.4184606171104 1.0
A      1  0.2188373899768  0.4010580854336  0.5862293571709 1.0
A      1  0.1081564951514  0.4013570974385  0.7522661081663 1.0
A      1  0.2200430637000  0.4013680900413  0.9193278352869 1.0
A      1  0.9437227518343  0.5021321076496  0.0844421210080 1.0
A      1  0.0557524248511  0.5015864519047  0.2517172735428 1.0
A      1  0.9460663624154  0.5017496403869  0.4180771406501 1.0
A      1  0.0541732340162  0.5013817996128  0.5852423106108 1.0
A      1  0.9428254304554  0.5018298047126  0.7515529461921 1.0
A      1  0.0545482902852  0.5017456844078  0.9184539705005 1.0
A      1  0.7775331481164  0.2006473651113  0.0836408579365 1.0
A      1  0.8896305287636  0.2008444548817  0.2509370444771 1.0
A      1  0.7832283577298  0.1984558363830  0.4187140043656 1.0
A      1  0.8905307245131  0.1998008812323  0.5856751041683 1.0
A      1  0.7777953048159  0.1997928405922  0.7537479767950 1.0
A      1  0.8885038937687  0.2011292008775  0.9183697011798 1.0
A      1  0.6106848964661  0.3014573690265  0.0839145228363 1.0
A      1  0.7256064584797  0.3019011009158  0.2464841357066 1.0
A      1  0.6211206963024  0.2863553272207  0.4063979807716 1.0
A      1  0.7260038310911  0.2953763928559  0.5902360375420 1.0
A      1  0.6104291250126  0.3015456088980  0.7540499024288 1.0
A      1  0.7218535163443  0.3015076603315  0.9183230137408 1.0
A      1  0.4440273420394  0.4012564361237  0.0840534837498 1.0
A      1  0.5599252290751  0.4061613003739  0.2478337291373 1.0
A      1  0.4386936733904  0.4015855326872  0.7605219051869 1.0
A      1  0.5549145943114  0.4021258133874  0.9194982813577 1.0
A      1  0.2756289568676  0.5009712815409  0.0850019840716 1.0
A      1  0.3865234669915  0.5007420844416  0.2482750840346 1.0
A      1  0.2727721527313  0.5030134772873  0.4194938869740 1.0
A      1  0.2727129682493  0.5018694054546  0.7564190537403 1.0
A      1  0.3867484216633  0.5028114861254  0.9209385989099 1.0
A      1  0.1098447177859  0.6017496868062  0.0852059920481 1.0
A      1  0.2208863341665  0.6013125192423  0.2514451294536 1.0
A      1  0.1098647676858  0.6022877833120  0.4185502986261 1.0
A      1  0.2183844757507  0.6024470236720  0.5865904656056 1.0
A      1  0.1086775031557  0.6020721840642  0.7525219889765 1.0
A      1  0.2203605562516  0.6025686516344  0.9197570389911 1.0
A      1  0.9440787789551  0.7024387934082  0.0848314821454 1.0
A      1  0.0553561893576  0.7019395958530  0.2514406210486 1.0
A      1  0.9459401253971  0.7032070283888  0.4182410296710 1.0
A      1  0.0545992009787  0.7024256477345  0.5855050725256 1.0
A      1  0.9438140434798  0.7026497137407  0.7520923746326 1.0
A      1  0.0544795149542  0.7021005435684  0.9186798344738 1.0
A      1  0.7780866916846  0.4018712980030  0.0825839127081 1.0
A      1  0.8914337790590  0.4014467448521  0.2498157507891 1.0
A      1  0.7829551950663  0.4013530391663  0.4139803116831 1.0
A      1  0.8877683815003  0.4015893633907  0.5843637753869 1.0
A      1  0.7767249378599  0.4020040698861  0.7523899102045 1.0
A      1  0.8887487005987  0.4015500167924  0.9177267787710 1.0
A      1  0.6114408245263  0.5033383798359  0.0836135130510 1.0
A      1  0.7268993395550  0.5027115326457  0.2467205680579 1.0
A      1  0.7244169355780  0.5078719087018  0.5898956756627 1.0
A      1  0.6114862283291  0.5048325352742  0.7560986258778 1.0
A      1  0.7224481333283  0.5023034430142  0.9187378768251 1.0
A      1  0.4434378131193  0.6018103978724  0.0848334143072 1.0
A      1  0.5525532475328  0.6042279455454  0.2505047520594 1.0
A      1  0.4442326177761  0.6019718522932  0.7535412295526 1.0
A      1  0.5543981660099  0.6028837053761  0.9193651734457 1.0
A      1  0.2771171983797  0.7012733967952  0.0856865172880 1.0
A      1  0.3881588706929  0.6996769911425  0.2535450552070 1.0
A      1  0.2790817154195  0.6992594978017  0.4187383240030 1.0
A      1  0.3880734631563  0.7000797894465  0.5836672078728 1.0
A      1  0.2769846598938  0.7010672912231  0.7518745362214 1.0
A      1  0.3874782003760  0.7020522247100  0.9186546186207 1.0
A      1  0.1106524950782  0.8016003451158  0.0850330399542 1.0
A      1  0.2217237975716  0.8005268884383  0.2518519442188 1.0
A      1  0.1117513785395  0.8011866805616  0.4184715471024 1.0
A      1  0.2217208047379  0.8010044909450  0.5852325389986 1.0
A      1  0.1106327418441  0.8016250894091  0.7519204766591 1.0
A      1  0.2212175776595  0.8015379012234  0.9184856531696 1.0
A      1  0.9437525155769  0.9016483536513  0.0849705127736 1.0
A      1  0.0548498203928  0.9010318398874  0.2516188445734 1.0
A      1  0.9449388677123  0.9015092623634  0.4182190992192 1.0
A      1  0.0551378692500  0.9012426850480  0.5850904011643 1.0
A      1  0.9438453098098  0.9015740378748  0.7517231530545 1.0
A      1  0.0544310810171  0.9013589837177  0.9183652985514 1.0
A      1  0.7781411068172  0.6033809746289  0.0836386631123 1.0
A      1  0.8904244033646  0.6024293820534  0.2510263246500 1.0
A      1  0.7836451199141  0.6049168116328  0.4185715538774 1.0
A      1  0.8899691655308  0.6029634412132  0.5856613430381 1.0
A      1  0.7782004878493  0.6039360470271  0.7534139992837 1.0
A      1  0.8887380592422  0.6020905604556  0.9183607736741 1.0
A      1  0.6107639890096  0.7025137038922  0.0848607135375 1.0
A      1  0.7217331667614  0.7014642874355  0.2517183212963 1.0
A      1  0.6108354193862  0.7060544607792  0.4172297172922 1.0
A      1  0.7211374301130  0.7032580489134  0.5842893018270 1.0
A      1  0.6101204415820  0.7019336456279  0.7500820045524 1.0
A      1  0.7209678810380  0.7023993527618  0.9180633236422 1.0
A      1  0.4436089254696  0.8008940412569  0.0850429262865 1.0
A      1  0.5546650513279  0.8026444749263  0.2507871680326 1.0
A      1  0.4438621017347  0.7981385128149  0.4183031488725 1.0
A      1  0.5543265695610  0.8021547086214  0.5850809322898 1.0
A      1  0.4433405116009  0.8011725573135  0.7514419112422 1.0
A      1  0.5544376657943  0.8019009069822  0.9177920004914 1.0
A      1  0.2769988101184  0.9010917400308  0.0848016197025 1.0
A      1  0.3877561897577  0.8995766669651  0.2510675562089 1.0
A      1  0.2771279218474  0.8995211447074  0.4183289124378 1.0
A      1  0.3878517455273  0.9002698279337  0.5853796314002 1.0
A      1  0.2770002322594  0.9012196753997  0.7518616862403 1.0
A      1  0.3879148980752  0.9011844007227  0.9181837355430 1.0
A      1  0.1102763220023  0.0010495091011  0.0848505211683 1.0
A      1  0.2211485047253  0.9998995729290  0.2513750116228 1.0
A      1  0.1111258379093  0.0005435634825  0.4183052413918 1.0
A      1  0.2217409582982  0.0005187314716  0.5851888335629 1.0
A      1  0.1104671334550  0.0011242339924  0.7517447704738 1.0
A      1  0.2211026421634  0.0008280710167  0.9182177062492 1.0
A      1  0.7770855018385  0.8022687193164  0.0850511044764 1.0
A      1  0.8881964569256  0.8018335134042  0.2514941466029 1.0
A      1  0.7783647993120  0.8026344873592  0.4179060756726 1.0
A      1  0.8880992973819  0.8020461719363  0.5849626332264 1.0
A      1  0.7768703190614  0.8023543652603  0.7514690234174 1.0
A      1  0.8876521470105  0.8018307369625  0.9183680242707 1.0
A      1  0.6102496615096  0.9017926970829  0.0843760734268 1.0
A      1  0.7212559006374  0.9020338734284  0.2514455620945 1.0
A      1  0.6109818009588  0.9008816078023  0.4181477512138 1.0
A      1  0.7212235064545  0.9017752974382  0.5846777534265 1.0
A      1  0.6101491152440  0.9018264951555  0.7514226226455 1.0
A      1  0.7211020548443  0.9017672947608  0.9182436379742 1.0
A      1  0.4434954440844  0.0005875651096  0.0841950061296 1.0
A      1  0.5541369458969  0.0015048942946  0.2509120357742 1.0
A      1  0.4432465738793  0.9950267533116  0.4180880241120 1.0
A      1  0.5540875857713  0.0018831999617  0.5851138944516 1.0
A      1  0.4434610080473  0.0011158104020  0.7517813535305 1.0
A      1  0.5544584882399  0.0017126532687  0.9177801353920 1.0
A      1  0.7769421097591  0.0015894694749  0.0851705948036 1.0
A      1  0.8881294332054  0.0015466098101  0.2515705891145 1.0
A      1  0.7787043771055  0.0006705448988  0.4179356222464 1.0
A      1  0.8886553588281  0.0010686278893  0.5848866440507 1.0
A      1  0.7770127891460  0.0011775986156  0.7515767954869 1.0
A      1  0.8876974383547  0.0013682545894  0.9183632344701 1.0
END
