TITL AB-20764-5019-542 0.0000000000 4458.8459578500 -1501.0805767155 0 0  183 (P1) n - 1
REM
REM Run started: at Fri Oct 6 15:39:32 BST 2023 in /home/michal/install/eddp/airss/examples/1.11
REM pp3 from code version ## 0.9.3 July 2022 commit b0220bf5cbf550a3b7
REM
REM
REM
REM Total runtime: s
REM
REM
REM ./AB.cell (a186c3e4acc5915692489c59fabd1559)
REM ## AIRSS Version 0.9.3 July 2022 commit b0220bf5cbf550a3b7
REM compiler GCC version 11.4.0
REM options -cpp -imultiarch x86_64-linux-gnu -mtune=generic -march=x86-64 -g -Og -fpre-include=/usr/include/finclude/math-vector-fortran.h
REM cmdline: airss.pl -pp3 max 100 -seed AB 
REM seed -305017873 -679662166 1020855176 -1140861303 516081332 -757119242 -2077848777 -966101769
REM
REM AB.pp (46f9ffe235eb1beff4ce53cde2d82919)
REM 
CELL 1.54180   16.99142   16.35000   16.05000   90.00000   90.00000   90.00000
LATT -1
SFAC A  B  
A      1  0.9451906101804  0.0998884354417  0.0826452518297 1.0
A      1  0.0558819163660  0.1001427665964  0.2491003656355 1.0
A      1  0.6145659294858  0.4961791921866  0.4121827759492 1.0
A      1  0.4451364174972  0.3987798959574  0.4160479255991 1.0
A      1  0.5601339246001  0.4018717800699  0.5819401855488 1.0
A      1  0.3948626512690  0.4946700270588  0.5888394732517 1.0
A      1  0.4535142357571  0.5952586244341  0.4026912570950 1.0
B      2  0.6198340294824  0.5954507622527  0.5392191406990 1.0
B      2  0.3378482880314  0.6037424859034  0.4983753494417 1.0
B      2  0.5343659794418  0.5625953563960  0.6259270783103 1.0
B      2  0.5143412427827  0.6562304191196  0.5372652237104 1.0
A      1  0.9450816661175  0.0999604431628  0.4158723859447 1.0
A      1  0.0563436544974  0.1006683578213  0.5827499081795 1.0
A      1  0.9455963311516  0.0999201634717  0.7495215808497 1.0
A      1  0.0562368236425  0.1002351425790  0.9160356815700 1.0
A      1  0.2785673018164  0.1000942315226  0.0825335319726 1.0
A      1  0.3895084355506  0.0994554831805  0.2495391181938 1.0
A      1  0.2786798015286  0.1001603526123  0.4161609840058 1.0
A      1  0.3898405625221  0.1012991808403  0.5827000634833 1.0
A      1  0.2788660987663  0.1003858730246  0.7493763349534 1.0
A      1  0.3896484041199  0.1002277550660  0.9164274295593 1.0
A      1  0.1119347673262  0.1999306777630  0.0824582890713 1.0
A      1  0.2227542823162  0.1994059915932  0.2489817251240 1.0
A      1  0.1118673676853  0.1996601103492  0.4158175099410 1.0
A      1  0.2233031872059  0.2007914757659  0.5827836103235 1.0
A      1  0.1124467684272  0.2000694858776  0.7493920277891 1.0
A      1  0.2230257304835  0.2000648232872  0.9157082298237 1.0
A      1  0.9452531192590  0.2996086664308  0.0826303867758 1.0
A      1  0.0559425930192  0.2994356764744  0.2490140507233 1.0
A      1  0.9454421128926  0.2992476783592  0.4159340759670 1.0
A      1  0.0574033402070  0.2998720037145  0.5827375149194 1.0
A      1  0.9460737800130  0.2994383768516  0.7495808104930 1.0
A      1  0.0564638036335  0.2998067217535  0.9158786539622 1.0
A      1  0.6118672493579  0.0997015717835  0.0827431315453 1.0
A      1  0.7226605161252  0.0998829693708  0.2492934894541 1.0
A      1  0.6119151015170  0.0996613786870  0.4160440116660 1.0
A      1  0.7232414673787  0.1002360048288  0.5827761137396 1.0
A      1  0.6123466694884  0.1001440128699  0.7496724838364 1.0
A      1  0.7229453163780  0.0998852216817  0.9162447404005 1.0
A      1  0.4453283140556  0.1996622309003  0.0828126563880 1.0
A      1  0.5562166131574  0.1995546812283  0.2492157582233 1.0
A      1  0.4455736795649  0.1993033487373  0.4157914889336 1.0
A      1  0.5569613584765  0.2007842756578  0.5827784895438 1.0
A      1  0.4457279179125  0.2001344313434  0.7496964541934 1.0
A      1  0.5564043390736  0.1997625633428  0.9161361520785 1.0
A      1  0.2786168769594  0.2996101507942  0.0819958314874 1.0
A      1  0.3893800024285  0.2992216162499  0.2490941799976 1.0
A      1  0.2784683838951  0.2982874237399  0.4156840312247 1.0
A      1  0.3908812124567  0.2992189649817  0.5828901444507 1.0
A      1  0.2791606940195  0.3006200383392  0.7489475416920 1.0
A      1  0.3895942363505  0.2995952427684  0.9161259844480 1.0
A      1  0.1112787238166  0.3998445666359  0.0821858934589 1.0
A      1  0.2218095718217  0.3980179318695  0.2468180669579 1.0
A      1  0.1106736840386  0.3989910980891  0.4157631729612 1.0
A      1  0.2241579736074  0.4014492338053  0.5817231675997 1.0
A      1  0.1120933724879  0.4002023713887  0.7490862892724 1.0
A      1  0.2227484881118  0.3996767634803  0.9158353925775 1.0
A      1  0.9449046156650  0.4999185607972  0.0830382764746 1.0
A      1  0.0564411562872  0.4998741804801  0.2496266302908 1.0
A      1  0.9450618734108  0.4999612378432  0.4161317237074 1.0
A      1  0.0553702286891  0.4995286558872  0.5829679575805 1.0
A      1  0.9446586275393  0.4995717308874  0.7496610544129 1.0
A      1  0.0559475930547  0.4996375899693  0.9165565882765 1.0
A      1  0.7786434044938  0.1995839751878  0.0827756173649 1.0
A      1  0.8893763180556  0.1998296136864  0.2492338762979 1.0
A      1  0.7788056628440  0.1994027173374  0.4158708398754 1.0
A      1  0.8902849559399  0.1997467856990  0.5827779077356 1.0
A      1  0.7792426267766  0.1993895561781  0.7496222606145 1.0
A      1  0.8897353075902  0.1998951365942  0.9161405974748 1.0
A      1  0.6121960235360  0.2992631774370  0.0826764699648 1.0
A      1  0.7230323294282  0.2997705080998  0.2493057244610 1.0
A      1  0.6123213469154  0.2987181494159  0.4157011833634 1.0
A      1  0.7242586794862  0.2987152887993  0.5827261673573 1.0
A      1  0.6128893496625  0.2994386583733  0.7492855472535 1.0
A      1  0.7232247287475  0.2994956650844  0.9163267616944 1.0
A      1  0.4454368961920  0.3991947741248  0.0817217808686 1.0
A      1  0.5561050607036  0.3993496816159  0.2481203919419 1.0
A      1  0.4470737455927  0.3992411866337  0.7516357285300 1.0
A      1  0.5569079751172  0.3993207880152  0.9164640180436 1.0
A      1  0.2779147282644  0.4997290713606  0.0817723967057 1.0
A      1  0.3890611954862  0.4981554614936  0.2455330836904 1.0
A      1  0.2755783236067  0.4942898766053  0.4096117268472 1.0
A      1  0.2780607353044  0.5002844766216  0.7504241872623 1.0
A      1  0.3893965589670  0.4996383101881  0.9165929214202 1.0
A      1  0.1110733358172  0.6000965067893  0.0828333838928 1.0
A      1  0.2225358524227  0.5998099791627  0.2478624796167 1.0
A      1  0.1119742271385  0.6001765939392  0.4168538194712 1.0
A      1  0.2163623860299  0.6013366305377  0.5888137481123 1.0
A      1  0.1091400083827  0.6001314051063  0.7518032299801 1.0
A      1  0.2221944256698  0.5998241158429  0.9171662925294 1.0
A      1  0.9447495331330  0.7000303943442  0.0829793125488 1.0
A      1  0.0562644306742  0.7001618164278  0.2496689924261 1.0
A      1  0.9443830699155  0.6999579299381  0.4159983945932 1.0
A      1  0.0542685335890  0.7012958370347  0.5829988307154 1.0
A      1  0.9440665378292  0.7004840023265  0.7497029891037 1.0
A      1  0.0557618464175  0.7005089464667  0.9165881150106 1.0
A      1  0.7789237832396  0.3993448178271  0.0825465800945 1.0
A      1  0.8902040055079  0.3995699223974  0.2493266981567 1.0
A      1  0.7798571547729  0.3987739628339  0.4159393991975 1.0
A      1  0.8915981050457  0.3985027066012  0.5828748183540 1.0
A      1  0.7799038753602  0.3983790233001  0.7505885794217 1.0
A      1  0.8901337621248  0.3996204371795  0.9164805634561 1.0
A      1  0.6125338896249  0.4990492288748  0.0810612898233 1.0
A      1  0.7245819800485  0.4993447830794  0.2481526593149 1.0
A      1  0.7284323405586  0.4961450609518  0.5850864234960 1.0
A      1  0.6138890559017  0.4984687057716  0.7510236400369 1.0
A      1  0.7239277245425  0.4995776458610  0.9162034402481 1.0
A      1  0.4453312908590  0.5998368675319  0.0815591206907 1.0
A      1  0.5597929877808  0.5995515360218  0.2437016939321 1.0
A      1  0.4425638987073  0.6015933179890  0.7527697938908 1.0
A      1  0.5564910178677  0.5997874111483  0.9153792295616 1.0
A      1  0.2779103377466  0.7002675541421  0.0824673036274 1.0
A      1  0.3892461471513  0.6998096373982  0.2474824128924 1.0
A      1  0.2724562514436  0.7079745787754  0.4086023299518 1.0
A      1  0.3851153848095  0.7122403707543  0.5959994296399 1.0
A      1  0.2750750419581  0.7010828034361  0.7539465306065 1.0
A      1  0.3890053417501  0.7008045858825  0.9176165315154 1.0
A      1  0.1107688627600  0.8003204790381  0.0823262579860 1.0
A      1  0.2211866965149  0.8024022123201  0.2462269839178 1.0
A      1  0.1087604409489  0.8020422910485  0.4155675005187 1.0
A      1  0.2199628464392  0.8020391737921  0.5821109087564 1.0
A      1  0.1105110857853  0.8006804139529  0.7496679352098 1.0
A      1  0.2220383173541  0.8012260846182  0.9172131465761 1.0
A      1  0.9447399941461  0.9001994344901  0.0825139954596 1.0
A      1  0.0553261812249  0.9009359606369  0.2489174189940 1.0
A      1  0.9441852373534  0.9008054970952  0.4158978261596 1.0
A      1  0.0552626254084  0.9015366814737  0.5828912799384 1.0
A      1  0.9445963390437  0.9003553695374  0.7495889755611 1.0
A      1  0.0557121709771  0.9006160306151  0.9160189944418 1.0
A      1  0.7785377966712  0.6000056641572  0.0821401722862 1.0
A      1  0.8899092612600  0.5999061983545  0.2496124698554 1.0
A      1  0.7779292928053  0.5994117516103  0.4169802942761 1.0
A      1  0.8901787760772  0.6001546273814  0.5829139756070 1.0
A      1  0.7787499360331  0.5998832662911  0.7494949862427 1.0
A      1  0.8898104380189  0.5999885073180  0.9161642718482 1.0
A      1  0.6124091192118  0.7004423808085  0.0811665573105 1.0
A      1  0.7242106691151  0.7000789822197  0.2485089165967 1.0
A      1  0.6137402335357  0.7014042943210  0.4133323106697 1.0
A      1  0.7252866773933  0.7024009624896  0.5831719800227 1.0
A      1  0.6096216420558  0.6967558030289  0.7441449779880 1.0
A      1  0.7226191247393  0.6997041788552  0.9145320415704 1.0
A      1  0.4453239810333  0.8003072024648  0.0827489508616 1.0
A      1  0.5557922470769  0.7995903667095  0.2492877384423 1.0
A      1  0.4440155354330  0.7961708478820  0.4192092071387 1.0
A      1  0.5572971302503  0.8034051558607  0.5838563370382 1.0
A      1  0.4462323227510  0.8035602034434  0.7543088078764 1.0
A      1  0.5571027213812  0.7995954107442  0.9160004145848 1.0
A      1  0.2785858095536  0.9007244956741  0.0826479035388 1.0
A      1  0.3893900634023  0.8991699795018  0.2504753347677 1.0
A      1  0.2779740914132  0.9023652719628  0.4161483920184 1.0
A      1  0.3892688652648  0.9045208783933  0.5833449911201 1.0
A      1  0.2783388345318  0.9002590264884  0.7494697563800 1.0
A      1  0.3891908244185  0.9010584738420  0.9173919649388 1.0
A      1  0.1117842070858  0.0001099824846  0.0825313815046 1.0
A      1  0.2226054024258  0.0006673550627  0.2491950192000 1.0
A      1  0.1113751009949  0.0006990855810  0.4159065924565 1.0
A      1  0.2223024988776  0.0014161963763  0.5829956066705 1.0
A      1  0.1118371916315  0.0002994050658  0.7495105617854 1.0
A      1  0.2226999221832  0.0005763053825  0.9159030018383 1.0
A      1  0.7784716873103  0.8000208962018  0.0822313863473 1.0
A      1  0.8897677347695  0.8002854869862  0.2491991045097 1.0
A      1  0.7788110569957  0.8005172655002  0.4157115675594 1.0
A      1  0.8896963051554  0.8012192104977  0.5827867202751 1.0
A      1  0.7777048762539  0.8002172506586  0.7496534854597 1.0
A      1  0.8892972700940  0.8001119693307  0.9161070027106 1.0
A      1  0.6118186429672  0.8999783730736  0.0828305231441 1.0
A      1  0.7226705155082  0.8997853071582  0.2492969161676 1.0
A      1  0.6112915749740  0.8999887554191  0.4160112294302 1.0
A      1  0.7233887187172  0.9013068720399  0.5825927888343 1.0
A      1  0.6125673694432  0.9003530330032  0.7500024770682 1.0
A      1  0.7230746238274  0.9001683217503  0.9163635603797 1.0
A      1  0.4452353584213  0.0000230259953  0.0834200981404 1.0
A      1  0.5561798060057  0.9996959652799  0.2494280075994 1.0
A      1  0.4454461591256  0.9992859595977  0.4160607885086 1.0
A      1  0.5566456009953  0.0015492468956  0.5831140360483 1.0
A      1  0.4455206190588  0.0013477919358  0.7500915914807 1.0
A      1  0.5562476775068  0.9998267759164  0.9163932127530 1.0
A      1  0.7783698614790  0.9999287658530  0.0828014071900 1.0
A      1  0.8890528866053  0.0002423576178  0.2491987454863 1.0
A      1  0.7781339327416  0.0001302880541  0.4158238292569 1.0
A      1  0.8894928778912  0.0007860169023  0.5827372648994 1.0
A      1  0.7787177184764  0.0001620961213  0.7495838619163 1.0
A      1  0.8894493803648  0.0002504402601  0.9161502826358 1.0
END
