TITL AB-20764-5019-338 0.0000000000 4458.8459578500 -1501.2231426535 0 0  183 (P1) n - 1
REM
REM Run started: at Fri Oct 6 15:31:59 BST 2023 in /home/michal/install/eddp/airss/examples/1.11
REM pp3 from code version ## 0.9.3 July 2022 commit b0220bf5cbf550a3b7
REM
REM
REM
REM Total runtime: s
REM
REM
REM ./AB.cell (a186c3e4acc5915692489c59fabd1559)
REM ## AIRSS Version 0.9.3 July 2022 commit b0220bf5cbf550a3b7
REM compiler GCC version 11.4.0
REM options -cpp -imultiarch x86_64-linux-gnu -mtune=generic -march=x86-64 -g -Og -fpre-include=/usr/include/finclude/math-vector-fortran.h
REM cmdline: airss.pl -pp3 max 100 -seed AB 
REM seed -554136720 -1835050889 -1239609500 -1248842064 472620506 -761320184 -1089162035 1311869006
REM
REM AB.pp (46f9ffe235eb1beff4ce53cde2d82919)
REM 
CELL 1.54180   16.99142   16.35000   16.05000   90.00000   90.00000   90.00000
LATT -1
SFAC A  B  
A      1  0.9456161835136  0.1011286514855  0.0837548182815 1.0
A      1  0.0564140631279  0.1006925735755  0.2502121101373 1.0
A      1  0.5623500067325  0.6062562152469  0.5807270510967 1.0
A      1  0.4440979706726  0.4033790182133  0.4212260112221 1.0
A      1  0.5671584790747  0.4064818469355  0.5739966449604 1.0
A      1  0.4475499273384  0.6016377890520  0.4167929375805 1.0
A      1  0.6145654322090  0.5040576592765  0.4129156292886 1.0
B      2  0.3544176291134  0.4400368806519  0.6304926475593 1.0
B      2  0.4583734667782  0.5030023309880  0.6304272583644 1.0
B      2  0.4982075627869  0.3063764787809  0.6660381847578 1.0
B      2  0.3694018649057  0.5376193445808  0.5453747568918 1.0
A      1  0.9452318535198  0.1008053078679  0.4168948069847 1.0
A      1  0.0556029952411  0.0996556401491  0.5837808208016 1.0
A      1  0.9458782857209  0.1010272113062  0.7505939223753 1.0
A      1  0.0568105457617  0.1012552754331  0.9171166689345 1.0
A      1  0.2783092686926  0.1011085787435  0.0841229440610 1.0
A      1  0.3895572210882  0.1007731063829  0.2503443185899 1.0
A      1  0.2789004325165  0.1008677174570  0.4174085355251 1.0
A      1  0.3900680165855  0.0988578472674  0.5845410802905 1.0
A      1  0.2773154634099  0.1003757599866  0.7506347457028 1.0
A      1  0.3889908058079  0.0995887752238  0.9197986686179 1.0
A      1  0.1118953809961  0.2011883962693  0.0832832277599 1.0
A      1  0.2225985601956  0.2002439251304  0.2495743027780 1.0
A      1  0.1106361321529  0.2004667012406  0.4165007288798 1.0
A      1  0.2193731787972  0.1979756679732  0.5833527025366 1.0
A      1  0.1119365455559  0.2015476576915  0.7505382859329 1.0
A      1  0.2234467196482  0.2015420293214  0.9165380099750 1.0
A      1  0.9452796119094  0.3012870832004  0.0836701228024 1.0
A      1  0.0562499254035  0.3007352117990  0.2497755720001 1.0
A      1  0.9442667802858  0.3008305464748  0.4166535580986 1.0
A      1  0.0541973659110  0.2997239267146  0.5834137829084 1.0
A      1  0.9455064485190  0.3012933367699  0.7506712759055 1.0
A      1  0.0567622332983  0.3014269943729  0.9171036177505 1.0
A      1  0.6123940761572  0.1010180601797  0.0837247747356 1.0
A      1  0.7237244214206  0.1010422145291  0.2498617422322 1.0
A      1  0.6132553401023  0.0993379265636  0.4148193468486 1.0
A      1  0.7246074930786  0.0998304125572  0.5835570235076 1.0
A      1  0.6119284160525  0.1018617009239  0.7498912412513 1.0
A      1  0.7232579067556  0.1014680127274  0.9169898855793 1.0
A      1  0.4453508130117  0.2010743249154  0.0850105173108 1.0
A      1  0.5568809802511  0.2008132685859  0.2495742715093 1.0
A      1  0.4459519645527  0.2000631651100  0.4145875094365 1.0
A      1  0.5597209935728  0.1954209719162  0.5780846213563 1.0
A      1  0.4420425270493  0.1951360708329  0.7566474966169 1.0
A      1  0.5566376398950  0.2013158752993  0.9187024475199 1.0
A      1  0.2783032993524  0.3012218833731  0.0845944807369 1.0
A      1  0.3898077713504  0.3017052594592  0.2513007158089 1.0
A      1  0.2751627004570  0.3002296264072  0.4130090627501 1.0
A      1  0.3803229956245  0.2938476159992  0.5740175344405 1.0
A      1  0.2798759278493  0.3026477208242  0.7481052274002 1.0
A      1  0.3893053487808  0.3005859211543  0.9204286873437 1.0
A      1  0.1116000919360  0.4013362331195  0.0835610721624 1.0
A      1  0.2222315520511  0.4013056258717  0.2496965952264 1.0
A      1  0.1093800430828  0.4007999268042  0.4155561663775 1.0
A      1  0.2163499794401  0.3985435327054  0.5806155439343 1.0
A      1  0.1117800089770  0.4012423090517  0.7504605116749 1.0
A      1  0.2234398884017  0.4013170751611  0.9176891292654 1.0
A      1  0.9454064799850  0.5014946779780  0.0836928414773 1.0
A      1  0.0563069457486  0.5015061878624  0.2502713049538 1.0
A      1  0.9448119167167  0.5014747419997  0.4169660681804 1.0
A      1  0.0555680391742  0.5013651339666  0.5837981755113 1.0
A      1  0.9455293332284  0.5016500522535  0.7505109562310 1.0
A      1  0.0567383308947  0.5015692464144  0.9172141113509 1.0
A      1  0.7791473871395  0.2009348670337  0.0841651253447 1.0
A      1  0.8900268838946  0.2009436133253  0.2503274763778 1.0
A      1  0.7785943259005  0.2008039270991  0.4169148416736 1.0
A      1  0.8898186481564  0.2003264365523  0.5836542779902 1.0
A      1  0.7805395336959  0.2004337935779  0.7509544413542 1.0
A      1  0.8906595569586  0.2010803059997  0.9174339357406 1.0
A      1  0.6124354531471  0.3013135965022  0.0849022822607 1.0
A      1  0.7238146834667  0.3014030471195  0.2501132502427 1.0
A      1  0.6124719993726  0.3003170105703  0.4145396987413 1.0
A      1  0.7245138971423  0.3000976386868  0.5844241987113 1.0
A      1  0.6189490357966  0.3013119398792  0.7566984403823 1.0
A      1  0.7253875010310  0.3012555764239  0.9196428315437 1.0
A      1  0.4453437685304  0.4015193807957  0.0856819911933 1.0
A      1  0.5562535421999  0.4016396394126  0.2512098271499 1.0
A      1  0.4415704173042  0.4083999311755  0.7649652005327 1.0
A      1  0.5576075659523  0.4015740493742  0.9204122832696 1.0
A      1  0.2778450554704  0.5015861296986  0.0858370888620 1.0
A      1  0.3897858653231  0.5014874013774  0.2518392896019 1.0
A      1  0.2772563441405  0.4995856074217  0.4166681007427 1.0
A      1  0.2761226039720  0.5042051495358  0.7543273323668 1.0
A      1  0.3881562482243  0.5044646990539  0.9235746893360 1.0
A      1  0.1116734236898  0.6015448062121  0.0844921253165 1.0
A      1  0.2230271775404  0.6015043553409  0.2514008714083 1.0
A      1  0.1122365519852  0.6008355023103  0.4178029716038 1.0
A      1  0.2248472204795  0.5982206256466  0.5851898652879 1.0
A      1  0.1112325818972  0.6019421736129  0.7508858824614 1.0
A      1  0.2221180111884  0.6026634186533  0.9191050664884 1.0
A      1  0.9454619221823  0.7014988114113  0.0838311228302 1.0
A      1  0.0567731121847  0.7013466579369  0.2508423428598 1.0
A      1  0.9463833058331  0.7015421888421  0.4171399280159 1.0
A      1  0.0578900410857  0.7009044741328  0.5840861321159 1.0
A      1  0.9454268483445  0.7017101395732  0.7506061580934 1.0
A      1  0.0561067496386  0.7017316176262  0.9175501571481 1.0
A      1  0.7791408966351  0.4017337725522  0.0838810204979 1.0
A      1  0.8902071307237  0.4012666319783  0.2504023669362 1.0
A      1  0.7784113922425  0.4012682800354  0.4171467495555 1.0
A      1  0.8902866327928  0.4009823428927  0.5835978090728 1.0
A      1  0.7801369724113  0.4022789335602  0.7505246938652 1.0
A      1  0.8905147156357  0.4016473869444  0.9172355684385 1.0
A      1  0.6124515780554  0.5017383956204  0.0845347554189 1.0
A      1  0.7243628989859  0.5015599443158  0.2494302904252 1.0
A      1  0.7275644065351  0.5035695932818  0.5832913785078 1.0
A      1  0.6104987939024  0.5010621701066  0.7481463215278 1.0
A      1  0.7230937681767  0.5014078028527  0.9164478317704 1.0
A      1  0.4457320861341  0.6022357294495  0.0858565808524 1.0
A      1  0.5570455982456  0.6022759669556  0.2496504869745 1.0
A      1  0.4444592698206  0.6050576386975  0.7545247218539 1.0
A      1  0.5566024600715  0.6012481980144  0.9177198413112 1.0
A      1  0.2787011357173  0.7015280919206  0.0850922640697 1.0
A      1  0.3898963945088  0.7015595601104  0.2514623955886 1.0
A      1  0.2796912878945  0.6998248809076  0.4184989069415 1.0
A      1  0.3916678904817  0.6980446336604  0.5852557754891 1.0
A      1  0.2781414444856  0.7023779283957  0.7517124759342 1.0
A      1  0.3893200793517  0.7028079569253  0.9192044050959 1.0
A      1  0.1121434093858  0.8013301511139  0.0843161092500 1.0
A      1  0.2234275638507  0.8010456788493  0.2513034510638 1.0
A      1  0.1129816230153  0.8008604292868  0.4174919834859 1.0
A      1  0.2242163074535  0.7994513067744  0.5842999828206 1.0
A      1  0.1119669317300  0.8015316236092  0.7509155586496 1.0
A      1  0.2227028411975  0.8018540157027  0.9180609051163 1.0
A      1  0.9456186340191  0.9013075034058  0.0838210380950 1.0
A      1  0.0568399846259  0.9010078076724  0.2506573975697 1.0
A      1  0.9463989156649  0.9012337263200  0.4170350702221 1.0
A      1  0.0573229489732  0.9004086131419  0.5839200503786 1.0
A      1  0.9456278686813  0.9013918190370  0.7506393915050 1.0
A      1  0.0563051641104  0.9014250727315  0.9174315766065 1.0
A      1  0.7789871705475  0.6015947199568  0.0831592993193 1.0
A      1  0.8903506013140  0.6015815117933  0.2500821792772 1.0
A      1  0.7800574434414  0.6024569249002  0.4164402129509 1.0
A      1  0.8914702732188  0.6022374578287  0.5838616082196 1.0
A      1  0.7787409933704  0.6018547202965  0.7505086037758 1.0
A      1  0.8899090576687  0.6014757289328  0.9169921359879 1.0
A      1  0.6124714551307  0.7017832522550  0.0834957085841 1.0
A      1  0.7238943578151  0.7015672792232  0.2496815733449 1.0
A      1  0.6139644966228  0.7032797195577  0.4155212716522 1.0
A      1  0.7258556608100  0.7031405181774  0.5834447212291 1.0
A      1  0.6126497323616  0.7016131520757  0.7505473794366 1.0
A      1  0.7232700576743  0.7015748136778  0.9170256818774 1.0
A      1  0.4456551255969  0.8016534008402  0.0846354625243 1.0
A      1  0.5566967390918  0.8016475333809  0.2501651208537 1.0
A      1  0.4460553867180  0.8007906122561  0.4178719761667 1.0
A      1  0.5573809922214  0.8021017662130  0.5839498225647 1.0
A      1  0.4456682492144  0.8017714968572  0.7509683588654 1.0
A      1  0.5565056584191  0.8014323575917  0.9172184926343 1.0
A      1  0.2788354878727  0.9013061590187  0.0844689471968 1.0
A      1  0.3899352619673  0.9010737301751  0.2511186067666 1.0
A      1  0.2792092528056  0.9005255503566  0.4175604229722 1.0
A      1  0.3899543154826  0.8994611941507  0.5840922907678 1.0
A      1  0.2785429041650  0.9011155286457  0.7510045640042 1.0
A      1  0.3896556463965  0.9011640723228  0.9179133071602 1.0
A      1  0.1121008226293  0.0011295202110  0.0840245965760 1.0
A      1  0.2232302266193  0.0007596794743  0.2508928690023 1.0
A      1  0.1124624233996  0.0009305598969  0.4172260149507 1.0
A      1  0.2232670420621  0.9994763629428  0.5838884982297 1.0
A      1  0.1118600892950  0.0010694087291  0.7505777830874 1.0
A      1  0.2227483613060  0.0011092153544  0.9175673952693 1.0
A      1  0.7790567418533  0.8015322317693  0.0835803828860 1.0
A      1  0.8903198215114  0.8013587826195  0.2502965530941 1.0
A      1  0.7801377903315  0.8019509473210  0.4166076518459 1.0
A      1  0.8912848382928  0.8015769746082  0.5837638120349 1.0
A      1  0.7792422620191  0.8017109036715  0.7505913561303 1.0
A      1  0.8898113616860  0.8015052432243  0.9172158769786 1.0
A      1  0.6123897167186  0.9013844867898  0.0835208155167 1.0
A      1  0.7234346819520  0.9012979649936  0.2501055292192 1.0
A      1  0.6128275162562  0.9011871387539  0.4167528063167 1.0
A      1  0.7240785472354  0.9012466139503  0.5836195987338 1.0
A      1  0.6127151919962  0.9014556747596  0.7507266873106 1.0
A      1  0.7232569056262  0.9014747120591  0.9171555142645 1.0
A      1  0.4456467539244  0.0009568621797  0.0845004268980 1.0
A      1  0.5565354430248  0.0009383069915  0.2499784897533 1.0
A      1  0.4457963253201  0.0006154253590  0.4173559098592 1.0
A      1  0.5569971487422  0.9994961999068  0.5837203526946 1.0
A      1  0.4453551034942  0.9993875264188  0.7510084416390 1.0
A      1  0.5564896211604  0.0014887378999  0.9170494509823 1.0
A      1  0.7790434475377  0.0012284664379  0.0835222545129 1.0
A      1  0.8901237741066  0.0009616383052  0.2502094670050 1.0
A      1  0.7796210179411  0.0008766199812  0.4166912945884 1.0
A      1  0.8903933988610  0.0004985938191  0.5838295520670 1.0
A      1  0.7790054246972  0.0012344593626  0.7506136341930 1.0
A      1  0.8899423098700  0.0013782828839  0.9171411422092 1.0
END
