TITL AB-20764-5019-421 0.0000000000 4458.8459578500 -1495.6491569273 0 0  183 (P1) n - 1
REM
REM Run started: at Fri Oct 6 15:35:07 BST 2023 in /home/michal/install/eddp/airss/examples/1.11
REM pp3 from code version ## 0.9.3 July 2022 commit b0220bf5cbf550a3b7
REM
REM
REM
REM Total runtime: s
REM
REM
REM ./AB.cell (a186c3e4acc5915692489c59fabd1559)
REM ## AIRSS Version 0.9.3 July 2022 commit b0220bf5cbf550a3b7
REM compiler GCC version 11.4.0
REM options -cpp -imultiarch x86_64-linux-gnu -mtune=generic -march=x86-64 -g -Og -fpre-include=/usr/include/finclude/math-vector-fortran.h
REM cmdline: airss.pl -pp3 max 100 -seed AB 
REM seed 693213077 599261954 -466892614 -412484080 -1272881479 539396721 18654507 -1303346128
REM
REM AB.pp (46f9ffe235eb1beff4ce53cde2d82919)
REM 
CELL 1.54180   16.99142   16.35000   16.05000   90.00000   90.00000   90.00000
LATT -1
SFAC A  B  
A      1  0.9446972804582  0.0990010188609  0.0823396360264 1.0
A      1  0.0558024291228  0.0985037509790  0.2488925969071 1.0
A      1  0.5506917676256  0.3994961016365  0.5952572362891 1.0
A      1  0.3897902395677  0.5022809199616  0.5782347113816 1.0
A      1  0.5575525818497  0.6002224356483  0.5853684216740 1.0
A      1  0.4554923021660  0.3887096563479  0.4267178365657 1.0
A      1  0.5918024086477  0.5170826569295  0.4093569198068 1.0
B      2  0.4233885723920  0.5450662663408  0.3930881336360 1.0
B      2  0.4720701685070  0.6447538983672  0.4518782315485 1.0
B      2  0.3380749815348  0.4010938167844  0.3338575045803 1.0
B      2  0.6602755632649  0.4072669584223  0.4908135965992 1.0
A      1  0.9449311404421  0.0982447787700  0.4155592946438 1.0
A      1  0.0552303056136  0.0984332053300  0.5826973660811 1.0
A      1  0.9445528230646  0.0990971490392  0.7492145018955 1.0
A      1  0.0554776634823  0.0988285433866  0.9159639465232 1.0
A      1  0.2777417556051  0.0987445032732  0.0822791361962 1.0
A      1  0.3883877357603  0.0956081675315  0.2479398216021 1.0
A      1  0.2770839760441  0.0961456775851  0.4158980159123 1.0
A      1  0.3885409172589  0.0986765906225  0.5824569082447 1.0
A      1  0.2778236367314  0.0986437610732  0.7495411790558 1.0
A      1  0.3885605675610  0.0983011274450  0.9148044167481 1.0
A      1  0.1111163254161  0.1989421512541  0.0823871810927 1.0
A      1  0.2226047321664  0.1988090731660  0.2496258884539 1.0
A      1  0.1103678602084  0.1971603422602  0.4159012687613 1.0
A      1  0.2207408855969  0.1968156021402  0.5849256456540 1.0
A      1  0.1103009997945  0.1988810351242  0.7495902491314 1.0
A      1  0.2217798410535  0.1984488751004  0.9157847343011 1.0
A      1  0.9440240423464  0.2986553432654  0.0814316484088 1.0
A      1  0.0548453720175  0.2979796308286  0.2482789640857 1.0
A      1  0.9469367885324  0.2980660686294  0.4153409167899 1.0
A      1  0.0560761698576  0.2991096041216  0.5823244281809 1.0
A      1  0.9442697595716  0.2994206678180  0.7486873168010 1.0
A      1  0.0554052187870  0.2988166739374  0.9150777285851 1.0
A      1  0.6122075645498  0.0980993952813  0.0808651023169 1.0
A      1  0.7228726119446  0.0986838658964  0.2488836924806 1.0
A      1  0.6116171074027  0.0952969437767  0.4151760168007 1.0
A      1  0.7223062518726  0.0989765156509  0.5820158259994 1.0
A      1  0.6113452191736  0.0992879806125  0.7482665776554 1.0
A      1  0.7225474093700  0.0990465026047  0.9151892814689 1.0
A      1  0.4451478509930  0.1964234391069  0.0787609300666 1.0
A      1  0.5560646572577  0.1951822660722  0.2451900864806 1.0
A      1  0.4431530458163  0.1948696877927  0.4141785152300 1.0
A      1  0.5553569010802  0.2001650447712  0.5810628778518 1.0
A      1  0.4447560987566  0.1988543052724  0.7492922430824 1.0
A      1  0.5559711363651  0.1987529252711  0.9152613222435 1.0
A      1  0.2773001526689  0.2986094108609  0.0809250439853 1.0
A      1  0.3924138985075  0.2907918170815  0.2419610000409 1.0
A      1  0.2746784317169  0.2920638192481  0.4218044166078 1.0
A      1  0.3867246138377  0.2974375491533  0.5859319558686 1.0
A      1  0.2763957776101  0.2984649683021  0.7501815389234 1.0
A      1  0.3883966068873  0.2982313686276  0.9155402765293 1.0
A      1  0.1091531890575  0.3989908451829  0.0800300140230 1.0
A      1  0.2165935700539  0.3986670104451  0.2432542670980 1.0
A      1  0.1119424064273  0.3987222609100  0.4148348836464 1.0
A      1  0.2223269183029  0.3991730974912  0.5837527215533 1.0
A      1  0.1105515850536  0.3994158471767  0.7489960756286 1.0
A      1  0.2219140923775  0.3991284410456  0.9147716285204 1.0
A      1  0.9441356893685  0.4997552416983  0.0819023884760 1.0
A      1  0.0546017477036  0.4998577126926  0.2486975349687 1.0
A      1  0.9458097882951  0.4998119531711  0.4157043566660 1.0
A      1  0.0560678011453  0.4992608209438  0.5822348114736 1.0
A      1  0.9441035279596  0.4995720937504  0.7488599422857 1.0
A      1  0.0554334554974  0.4995256672628  0.9152498439193 1.0
A      1  0.7779946250957  0.1987340024952  0.0818435842661 1.0
A      1  0.8891316809723  0.1987844923920  0.2487764545844 1.0
A      1  0.7797364481018  0.1980066690366  0.4157146867625 1.0
A      1  0.8898011858133  0.1988886041746  0.5823572597536 1.0
A      1  0.7783690268506  0.1987512924015  0.7496314762200 1.0
A      1  0.8891339664966  0.1990218329196  0.9154701330927 1.0
A      1  0.6108043513136  0.2988983530784  0.0821292165011 1.0
A      1  0.7229346115100  0.2986072105587  0.2467388381648 1.0
A      1  0.6123427899810  0.2872163149718  0.4080784854434 1.0
A      1  0.7237918178270  0.2971744055668  0.5846251540069 1.0
A      1  0.6117444574682  0.2982916334171  0.7514283372023 1.0
A      1  0.7226976289451  0.2992000518199  0.9165024350388 1.0
A      1  0.4443753650133  0.3981511016898  0.0798579905677 1.0
A      1  0.5538152306993  0.3985862566590  0.2497928273200 1.0
A      1  0.4415723873670  0.3994110905898  0.7525688729077 1.0
A      1  0.5556757354524  0.3991752851903  0.9161297092628 1.0
A      1  0.2766343371486  0.4990299429897  0.0797606577556 1.0
A      1  0.3925018281353  0.5059767250644  0.2367390579161 1.0
A      1  0.2716123910454  0.5058416489994  0.4222868897587 1.0
A      1  0.2775317937484  0.4997219398313  0.7484492923336 1.0
A      1  0.3884627698745  0.4997804226391  0.9153104015763 1.0
A      1  0.1111345205691  0.5991719544415  0.0824758072296 1.0
A      1  0.2224466833274  0.5983744201060  0.2496683068708 1.0
A      1  0.1094126885397  0.6012604245580  0.4161133364636 1.0
A      1  0.2208664503245  0.6015191067874  0.5854078180452 1.0
A      1  0.1104560667456  0.5995414875433  0.7497156676785 1.0
A      1  0.2220071428408  0.5996894954755  0.9153079075793 1.0
A      1  0.9444194915286  0.6991398222857  0.0829783826038 1.0
A      1  0.0551710438304  0.6990076383980  0.2491119093054 1.0
A      1  0.9433983485898  0.6992292225766  0.4158122953232 1.0
A      1  0.0552747150021  0.7001084881257  0.5829339111033 1.0
A      1  0.9448702764289  0.7000136853855  0.7497313653685 1.0
A      1  0.0555946540722  0.6994824081961  0.9162946283611 1.0
A      1  0.7774651140296  0.3996171603173  0.0824688295216 1.0
A      1  0.8903275372224  0.3991327703567  0.2462505205567 1.0
A      1  0.7859116374107  0.3973695528157  0.4096968155766 1.0
A      1  0.8889661543452  0.3993807122775  0.5818182961107 1.0
A      1  0.7780521384262  0.3991889893416  0.7505247772532 1.0
A      1  0.8892477273368  0.3993352439997  0.9158206892178 1.0
A      1  0.6103597770827  0.4993040159778  0.0824862656356 1.0
A      1  0.7194944218149  0.4990667521855  0.2505457111817 1.0
A      1  0.7261081419329  0.5050448580278  0.5899438133886 1.0
A      1  0.6119758379712  0.5001222154273  0.7526586963943 1.0
A      1  0.7228013010129  0.4995959826005  0.9171014675034 1.0
A      1  0.4451846035407  0.6019374283939  0.0769799185809 1.0
A      1  0.5546059654056  0.6050745758171  0.2433180544817 1.0
A      1  0.4445408470102  0.5991204808241  0.7488171618456 1.0
A      1  0.5561697987688  0.5999929933399  0.9151268170698 1.0
A      1  0.2782356396787  0.6988611117978  0.0829654200830 1.0
A      1  0.3895765038343  0.7001667369646  0.2513786162849 1.0
A      1  0.2810583063125  0.6994303489540  0.4168994012891 1.0
A      1  0.3890410968951  0.7000725227051  0.5832237467495 1.0
A      1  0.2778557132527  0.6998858560809  0.7496510975497 1.0
A      1  0.3885998403746  0.7002062120786  0.9143845091970 1.0
A      1  0.1113222487556  0.7989500101310  0.0827234051915 1.0
A      1  0.2221230592421  0.7982174163698  0.2494617640945 1.0
A      1  0.1115485149780  0.7988453367379  0.4159841622906 1.0
A      1  0.2221761833739  0.7996583474949  0.5827088173039 1.0
A      1  0.1113781072297  0.7994246823440  0.7494968665667 1.0
A      1  0.2221078787310  0.7992702813670  0.9162464111064 1.0
A      1  0.9449314175638  0.8991198967117  0.0824505920662 1.0
A      1  0.0557067372432  0.8986336971140  0.2491167217038 1.0
A      1  0.9451895696540  0.8988583251189  0.4158366352425 1.0
A      1  0.0556126173883  0.8991913004367  0.5827731457669 1.0
A      1  0.9448561010279  0.8996085641076  0.7493870592648 1.0
A      1  0.0556565573004  0.8991253002334  0.9159635361995 1.0
A      1  0.7774374342110  0.5992699226869  0.0833384359493 1.0
A      1  0.8876161179873  0.5987448767506  0.2499795562265 1.0
A      1  0.7748399286601  0.5970827949054  0.4174003642330 1.0
A      1  0.8903775603605  0.6005511519432  0.5827100188557 1.0
A      1  0.7790556477840  0.6014381989777  0.7520925955879 1.0
A      1  0.8893686728125  0.5995926345746  0.9166019925369 1.0
A      1  0.6122982517980  0.7008491264706  0.0805777536525 1.0
A      1  0.7226961048387  0.6997039295655  0.2491531439488 1.0
A      1  0.6134831420175  0.7063468695720  0.4150931392745 1.0
A      1  0.7231524723558  0.7015972047425  0.5831422116401 1.0
A      1  0.6118991387151  0.7002794155447  0.7497337616356 1.0
A      1  0.7228111292969  0.7000292712151  0.9163184219922 1.0
A      1  0.4446490395705  0.7994307458560  0.0822130005296 1.0
A      1  0.5560502198257  0.8014559185264  0.2478725383526 1.0
A      1  0.4452142963892  0.8011678217864  0.4155257890870 1.0
A      1  0.5555337660315  0.7999623834801  0.5826345336329 1.0
A      1  0.4448994570449  0.7995391095930  0.7489092427406 1.0
A      1  0.5555003284510  0.7998546588053  0.9153130811981 1.0
A      1  0.2777870092541  0.8988357482159  0.0824617032960 1.0
A      1  0.3884017349940  0.8984999033168  0.2485877678183 1.0
A      1  0.2777003925499  0.8983350675009  0.4156744760212 1.0
A      1  0.3886993010305  0.8993576245179  0.5825324146732 1.0
A      1  0.2779601917094  0.8991584218020  0.7494086079908 1.0
A      1  0.3887826248171  0.8991719836420  0.9154831332773 1.0
A      1  0.1111968588061  0.9989114290122  0.0823848666664 1.0
A      1  0.2216630209573  0.9982184323796  0.2488560472703 1.0
A      1  0.1110159654810  0.9981117488946  0.4159001516992 1.0
A      1  0.2219989407290  0.9983455383017  0.5828390133465 1.0
A      1  0.1112732825110  0.9991721850354  0.7493886567711 1.0
A      1  0.2220679133931  0.9988050943515  0.9159598239332 1.0
A      1  0.7785078340222  0.7995853974915  0.0825528717766 1.0
A      1  0.8892325350603  0.7991857049480  0.2490128624971 1.0
A      1  0.7793636993951  0.7997771676662  0.4157915671949 1.0
A      1  0.8892820851823  0.8000608844722  0.5829067038058 1.0
A      1  0.7783535344169  0.8004027819445  0.7495072156865 1.0
A      1  0.8892043720362  0.7994662485178  0.9160819399086 1.0
A      1  0.6118752516332  0.8994888755361  0.0814893385681 1.0
A      1  0.7228503005736  0.8993275352533  0.2489569480302 1.0
A      1  0.6120860322888  0.9004889614154  0.4156753821259 1.0
A      1  0.7223038239233  0.8999430276889  0.5822690324572 1.0
A      1  0.6115245532440  0.8996895313000  0.7488348986258 1.0
A      1  0.7224662108563  0.8995143514908  0.9156384000708 1.0
A      1  0.4448348980310  0.9981722742030  0.0814748926187 1.0
A      1  0.5556975338210  0.9982915121605  0.2480110409515 1.0
A      1  0.4443880970611  0.9979834951606  0.4154730827140 1.0
A      1  0.5552359791748  0.9995359460246  0.5824654783670 1.0
A      1  0.4446182831458  0.9990452571355  0.7487861996833 1.0
A      1  0.5556085967177  0.9992683430999  0.9148881553368 1.0
A      1  0.7785234377884  0.9990619712157  0.0822310194469 1.0
A      1  0.8894298779879  0.9988633096146  0.2489237361223 1.0
A      1  0.7789949724820  0.9988024371329  0.4155652641898 1.0
A      1  0.8890061609493  0.9992168655556  0.5824841551861 1.0
A      1  0.7780809736154  0.9994566005105  0.7489110109083 1.0
A      1  0.8890649863052  0.9991587505513  0.9157504672014 1.0
END
