TITL AB-20764-5019-433 0.0000000000 4458.8459578500 -1491.3309475135 0 0  183 (P1) n - 1
REM
REM Run started: at Fri Oct 6 15:35:34 BST 2023 in /home/michal/install/eddp/airss/examples/1.11
REM pp3 from code version ## 0.9.3 July 2022 commit b0220bf5cbf550a3b7
REM
REM
REM
REM Total runtime: s
REM
REM
REM ./AB.cell (a186c3e4acc5915692489c59fabd1559)
REM ## AIRSS Version 0.9.3 July 2022 commit b0220bf5cbf550a3b7
REM compiler GCC version 11.4.0
REM options -cpp -imultiarch x86_64-linux-gnu -mtune=generic -march=x86-64 -g -Og -fpre-include=/usr/include/finclude/math-vector-fortran.h
REM cmdline: airss.pl -pp3 max 100 -seed AB 
REM seed 176541219 -1506018375 979354630 -106977231 -2109369313 -911071242 -182950898 -273227733
REM
REM AB.pp (46f9ffe235eb1beff4ce53cde2d82919)
REM 
CELL 1.54180   16.99142   16.35000   16.05000   90.00000   90.00000   90.00000
LATT -1
SFAC A  B  
A      1  0.9431908310426  0.0994630279402  0.0819062342823 1.0
A      1  0.0539723639254  0.0992775501700  0.2482733582313 1.0
A      1  0.4431224927720  0.3945917311180  0.4107127358540 1.0
A      1  0.4394115413078  0.5990520428913  0.4126855873098 1.0
A      1  0.5267804184716  0.5921986978882  0.5873739852349 1.0
A      1  0.6051128835432  0.4941034304242  0.4156562664137 1.0
A      1  0.3830022697537  0.4805934746555  0.5711789371482 1.0
B      2  0.3409082273096  0.5969482942420  0.6617127491153 1.0
B      2  0.6588560512332  0.6021532152123  0.5158436923674 1.0
B      2  0.5355657719032  0.3814720802605  0.5628413814911 1.0
B      2  0.6620306636433  0.6020594857236  0.6509875162930 1.0
A      1  0.9438127931491  0.0995356825580  0.4147636054684 1.0
A      1  0.0546385286819  0.0992528055554  0.5818120788527 1.0
A      1  0.9437462380688  0.0995696070799  0.7490634411798 1.0
A      1  0.0540614780156  0.0992744965859  0.9154834435047 1.0
A      1  0.2763127214835  0.0992498494011  0.0816586888723 1.0
A      1  0.3870707767381  0.0991935815746  0.2474125075401 1.0
A      1  0.2764992833289  0.0990903902043  0.4147919360559 1.0
A      1  0.3876303480435  0.0983527122847  0.5816785596175 1.0
A      1  0.2768142756381  0.0990672413858  0.7483638993820 1.0
A      1  0.3873487705985  0.0994637025861  0.9151408868649 1.0
A      1  0.1097632591083  0.1991895666955  0.0818629629321 1.0
A      1  0.2203903137176  0.1988491101066  0.2483399260923 1.0
A      1  0.1099422329932  0.1990694302039  0.4148221424819 1.0
A      1  0.2203853333578  0.1979743117735  0.5815328395766 1.0
A      1  0.1100589709337  0.1987868192288  0.7487699887907 1.0
A      1  0.2207503392805  0.1987397719419  0.9151177046780 1.0
A      1  0.9429904185751  0.2990000442386  0.0821045801581 1.0
A      1  0.0538174717060  0.2987931385902  0.2483221295827 1.0
A      1  0.9432855076226  0.2983712688192  0.4145958649740 1.0
A      1  0.0540757312051  0.2973825686860  0.5817841814057 1.0
A      1  0.9434441165243  0.2980764162375  0.7493363006578 1.0
A      1  0.0538714090968  0.2985373659116  0.9157216200431 1.0
A      1  0.6096374079658  0.0996106302882  0.0816879676509 1.0
A      1  0.7205241752481  0.0994095768713  0.2480701747548 1.0
A      1  0.6101631332687  0.0996028553850  0.4151616608127 1.0
A      1  0.7209033173861  0.0993397618406  0.5818096293368 1.0
A      1  0.6100638942073  0.0998666462374  0.7481174600946 1.0
A      1  0.7205955840909  0.0994824386240  0.9155697551662 1.0
A      1  0.4431275202944  0.1991751031314  0.0809796047397 1.0
A      1  0.5538768015275  0.1992312345891  0.2484226052505 1.0
A      1  0.4428967509333  0.1974464589496  0.4136496244628 1.0
A      1  0.5534951741677  0.2003013980218  0.5814778492172 1.0
A      1  0.4432626838061  0.1986574060232  0.7489950478234 1.0
A      1  0.5542035251825  0.1994779997111  0.9146295353567 1.0
A      1  0.2762700731327  0.2987256619237  0.0815210506902 1.0
A      1  0.3864666278186  0.2979730847168  0.2469641637611 1.0
A      1  0.2758258157879  0.2990049527945  0.4151407285184 1.0
A      1  0.3876637906145  0.2923730096994  0.5809118845182 1.0
A      1  0.2763726810084  0.2975276333031  0.7480400436021 1.0
A      1  0.3872980152498  0.2993930343118  0.9140737855833 1.0
A      1  0.1090339902958  0.3990340258946  0.0820928192401 1.0
A      1  0.2199897732521  0.3982563995060  0.2476969948257 1.0
A      1  0.1083638263255  0.3988196869392  0.4148677474139 1.0
A      1  0.2169663615766  0.3968685754752  0.5822486440959 1.0
A      1  0.1080273685855  0.3978192194322  0.7490252164551 1.0
A      1  0.2197055428025  0.3974631240295  0.9170887628879 1.0
A      1  0.9429078726901  0.4991529817444  0.0821168116727 1.0
A      1  0.0536860199999  0.4988312520400  0.2481347416539 1.0
A      1  0.9419068455363  0.4986513388635  0.4152786744678 1.0
A      1  0.0522140894497  0.4986161791405  0.5816683280981 1.0
A      1  0.9433996062794  0.4988581446413  0.7489221099750 1.0
A      1  0.0546411971589  0.4990697120524  0.9151792566390 1.0
A      1  0.7763918041942  0.1993106697261  0.0818724071604 1.0
A      1  0.8872506829804  0.1991551812932  0.2481810207501 1.0
A      1  0.7769776211945  0.1985410302641  0.4143586398828 1.0
A      1  0.8880608463196  0.1980928253812  0.5819161280986 1.0
A      1  0.7768349982425  0.1987105155329  0.7494374635851 1.0
A      1  0.8872435944734  0.1991730154408  0.9157102512032 1.0
A      1  0.6097393419485  0.2987594075392  0.0816277299993 1.0
A      1  0.7202553133923  0.2987406199441  0.2483509211640 1.0
A      1  0.6094844288803  0.2985198205240  0.4171818312708 1.0
A      1  0.7206511967575  0.2925145489936  0.5818879539331 1.0
A      1  0.6092663223168  0.2992839048298  0.7462719266690 1.0
A      1  0.7203641491361  0.2991300410339  0.9154939600501 1.0
A      1  0.4428693405273  0.3986498499657  0.0821260023380 1.0
A      1  0.5539993835253  0.3980041433215  0.2474338660860 1.0
A      1  0.4432638290954  0.3998918830429  0.7441809512946 1.0
A      1  0.5534635126392  0.3987672129419  0.9160927308315 1.0
A      1  0.2756348243868  0.4989749444960  0.0822908157587 1.0
A      1  0.3867869106004  0.4984419468836  0.2476287447854 1.0
A      1  0.2732905277164  0.4985098351211  0.4117896186887 1.0
A      1  0.2729134185120  0.4933787323793  0.7536631501318 1.0
A      1  0.3869548737707  0.4979327713490  0.9180678259469 1.0
A      1  0.1090051252282  0.5992501513192  0.0817021167168 1.0
A      1  0.2199038411899  0.5992142551866  0.2473132584898 1.0
A      1  0.1068151784999  0.5991675994146  0.4131320743826 1.0
A      1  0.2152154369392  0.5984387122501  0.5764632352895 1.0
A      1  0.1101610198672  0.5990315903348  0.7479370977221 1.0
A      1  0.2208847224516  0.5991882924003  0.9161774244186 1.0
A      1  0.9429505908250  0.6994699760390  0.0821061373411 1.0
A      1  0.0537501126546  0.6996568859096  0.2482512053214 1.0
A      1  0.9418420700116  0.6998680803354  0.4156477439639 1.0
A      1  0.0530098259694  0.6990337128231  0.5816534275538 1.0
A      1  0.9434176480370  0.6997630064665  0.7485272777450 1.0
A      1  0.0547108475249  0.6993672303948  0.9150208562084 1.0
A      1  0.7764557562407  0.3988947140047  0.0825823972761 1.0
A      1  0.8874736669121  0.3990453435319  0.2481344973897 1.0
A      1  0.7770038343535  0.3970712853016  0.4130329031779 1.0
A      1  0.8904632263837  0.3955772485366  0.5821053248593 1.0
A      1  0.7782881099455  0.3971816343453  0.7512705290307 1.0
A      1  0.8882528850288  0.3990059036597  0.9162126369102 1.0
A      1  0.6101532461694  0.4983885216634  0.0837463374351 1.0
A      1  0.7203314717503  0.4991380626800  0.2495974585698 1.0
A      1  0.7253230985634  0.4804793714306  0.5820913629706 1.0
A      1  0.6099611175595  0.4945307779842  0.7525461908455 1.0
A      1  0.7221258024604  0.4988283181447  0.9169819667749 1.0
A      1  0.4428717169910  0.5992452167762  0.0830975311183 1.0
A      1  0.5537483446269  0.5988587428916  0.2489585838357 1.0
A      1  0.4505539883101  0.6003910710830  0.7649859284650 1.0
A      1  0.5581069094613  0.5994819585588  0.9219366168174 1.0
A      1  0.2755063098869  0.6994766777046  0.0825070701720 1.0
A      1  0.3869340167244  0.6997949000745  0.2477092520605 1.0
A      1  0.2737008010192  0.6995535538023  0.4123761348063 1.0
A      1  0.3848233609170  0.7131259725524  0.5724417797429 1.0
A      1  0.2737496338047  0.7034451966348  0.7528176394913 1.0
A      1  0.3868001403479  0.7008509328957  0.9188966293432 1.0
A      1  0.1091244441845  0.7994541847598  0.0820390201278 1.0
A      1  0.2201562334901  0.8000020155275  0.2480119202754 1.0
A      1  0.1086504552708  0.7995322164524  0.4151130185966 1.0
A      1  0.2186648702067  0.8000716687965  0.5822116637521 1.0
A      1  0.1085788760809  0.8002451910878  0.7487581407438 1.0
A      1  0.2199975977179  0.8006517359081  0.9166678398494 1.0
A      1  0.9431694267658  0.8998029654123  0.0820646555433 1.0
A      1  0.0541416171173  0.8997117209658  0.2482990048345 1.0
A      1  0.9438522560159  0.9006703115973  0.4144000064171 1.0
A      1  0.0560003920292  0.9012659042721  0.5818203333973 1.0
A      1  0.9440887107845  0.9009774991349  0.7495456468770 1.0
A      1  0.0542535888632  0.8998892143036  0.9156893814199 1.0
A      1  0.7764134855386  0.5991908379124  0.0829166634032 1.0
A      1  0.8877239242921  0.5993013996905  0.2485371631356 1.0
A      1  0.7770265670765  0.5992107716411  0.4139524398654 1.0
A      1  0.8850085811159  0.5982104766281  0.5823431868272 1.0
A      1  0.7794093095204  0.5994944880768  0.7523311319951 1.0
A      1  0.8888703141668  0.5993531141453  0.9165443940690 1.0
A      1  0.6101524690314  0.7002749600117  0.0838626131273 1.0
A      1  0.7211251816478  0.6997134239844  0.2484689474839 1.0
A      1  0.6065381083830  0.7038459080965  0.4102635582040 1.0
A      1  0.7334949188014  0.7175633315341  0.5820052609651 1.0
A      1  0.6102776599195  0.7053524760460  0.7553086632852 1.0
A      1  0.7225474766200  0.7001774363640  0.9175870770535 1.0
A      1  0.4426359591439  0.8000521071934  0.0824604857253 1.0
A      1  0.5538114589206  0.8011547691453  0.2465158076329 1.0
A      1  0.4432079298248  0.8026600815746  0.4109636348547 1.0
A      1  0.5571323053487  0.7967572414582  0.5817895838833 1.0
A      1  0.4422756041179  0.7992592092762  0.7475483024659 1.0
A      1  0.5534014068649  0.8006990597996  0.9174099634996 1.0
A      1  0.2760936330136  0.8996843577658  0.0817180220270 1.0
A      1  0.3865193097690  0.9004207467072  0.2473272307318 1.0
A      1  0.2760886565541  0.8991624724572  0.4153085763256 1.0
A      1  0.3881764449478  0.9035208850617  0.5814075596296 1.0
A      1  0.2762708445143  0.9004322302450  0.7482620017441 1.0
A      1  0.3871150293733  0.8998207542674  0.9148827764974 1.0
A      1  0.1097583054950  0.9994740873418  0.0818848237520 1.0
A      1  0.2204909649860  0.9995255356022  0.2483719745834 1.0
A      1  0.1102030027614  0.9996356665983  0.4147839386794 1.0
A      1  0.2210781912082  0.9997045006351  0.5816014391848 1.0
A      1  0.1102715049624  0.9998819778812  0.7488536493501 1.0
A      1  0.2207758210120  0.9997256484114  0.9152269051758 1.0
A      1  0.7767494266404  0.8000532603111  0.0824716177470 1.0
A      1  0.8879334934422  0.7997034331437  0.2480873998889 1.0
A      1  0.7773867947622  0.8021583353619  0.4124750714779 1.0
A      1  0.8940960513675  0.8043886916931  0.5821249176681 1.0
A      1  0.7785871162680  0.8023632744616  0.7516503369489 1.0
A      1  0.8886360827298  0.7997398590621  0.9161599989409 1.0
A      1  0.6099264807180  0.9004195350055  0.0817481154158 1.0
A      1  0.7206049233051  0.9001450756170  0.2478649551997 1.0
A      1  0.6104092470019  0.9010643368110  0.4152635712309 1.0
A      1  0.7219464767898  0.9060556706813  0.5820393088486 1.0
A      1  0.6101020560270  0.9011256287410  0.7484579136725 1.0
A      1  0.7206936706180  0.8999476937476  0.9159839993296 1.0
A      1  0.4430756598473  0.9995196369968  0.0812536254625 1.0
A      1  0.5538443188457  0.9999794101206  0.2482226837498 1.0
A      1  0.4431786365944  0.0000105700756  0.4140488856381 1.0
A      1  0.5541499247961  0.9997987684364  0.5816130880678 1.0
A      1  0.4434543380735  0.9995011384429  0.7489631905691 1.0
A      1  0.5540888538823  0.0000301052372  0.9150843876800 1.0
A      1  0.7765717835995  0.9998526180490  0.0818713489036 1.0
A      1  0.8874400652746  0.9995992838828  0.2481385920369 1.0
A      1  0.7773343106401  0.0005495635384  0.4143725843356 1.0
A      1  0.8887343505405  0.0009494855556  0.5819328787290 1.0
A      1  0.7772352471042  0.0006546736813  0.7494813141295 1.0
A      1  0.8874637779951  0.9995981320890  0.9157473302481 1.0
END
