TITL AB-20764-5019-579 0.0000000000 4458.8459578500 -1497.7145012090 0 0  183 (P1) n - 1
REM
REM Run started: at Fri Oct 6 15:40:51 BST 2023 in /home/michal/install/eddp/airss/examples/1.11
REM pp3 from code version ## 0.9.3 July 2022 commit b0220bf5cbf550a3b7
REM
REM
REM
REM Total runtime: s
REM
REM
REM ./AB.cell (a186c3e4acc5915692489c59fabd1559)
REM ## AIRSS Version 0.9.3 July 2022 commit b0220bf5cbf550a3b7
REM compiler GCC version 11.4.0
REM options -cpp -imultiarch x86_64-linux-gnu -mtune=generic -march=x86-64 -g -Og -fpre-include=/usr/include/finclude/math-vector-fortran.h
REM cmdline: airss.pl -pp3 max 100 -seed AB 
REM seed -1124972881 -416505698 -596091412 2083110088 -1793532740 -1179859363 -2028011335 1582606434
REM
REM AB.pp (46f9ffe235eb1beff4ce53cde2d82919)
REM 
CELL 1.54180   16.99142   16.35000   16.05000   90.00000   90.00000   90.00000
LATT -1
SFAC A  B  
A      1  0.9420404737512  0.0989912853931  0.0830395029392 1.0
A      1  0.0527352675885  0.0986251711330  0.2497312371722 1.0
A      1  0.5928720979298  0.4758595719718  0.4540656319143 1.0
A      1  0.4353044620622  0.3904863841768  0.4034660485545 1.0
A      1  0.4460958550226  0.5991117574229  0.4138817575543 1.0
A      1  0.5577219830300  0.6075520865099  0.5915849570045 1.0
A      1  0.4199627920597  0.4809012985227  0.5719518605139 1.0
B      2  0.5864927243243  0.4200233571803  0.6186762831712 1.0
B      2  0.5210625453227  0.3504740479400  0.5363055085997 1.0
B      2  0.6514281655554  0.5754156071230  0.3508609880143 1.0
B      2  0.3390686221845  0.5823376811864  0.6533266223049 1.0
A      1  0.9417930749386  0.0998993279555  0.4166358597959 1.0
A      1  0.0520934870974  0.0996848379407  0.5833555878988 1.0
A      1  0.9416040035764  0.1004178747438  0.7498894716097 1.0
A      1  0.0528212535651  0.0988688464768  0.9165686457899 1.0
A      1  0.2753187137896  0.0986898059730  0.0828291045631 1.0
A      1  0.3857560215261  0.0979360269211  0.2488072432364 1.0
A      1  0.2744613383978  0.0985085975645  0.4163577587906 1.0
A      1  0.3854597294329  0.0976439608245  0.5830980719250 1.0
A      1  0.2752429871361  0.0985287778759  0.7495531731601 1.0
A      1  0.3862725190904  0.0993112890240  0.9158371402794 1.0
A      1  0.1085514528514  0.1986817929219  0.0831862987518 1.0
A      1  0.2189280950071  0.1980320745866  0.2494881673960 1.0
A      1  0.1073316773440  0.1989146804811  0.4164537816826 1.0
A      1  0.2175846489571  0.1985311411285  0.5833464048484 1.0
A      1  0.1080800244852  0.1988305915576  0.7501720796463 1.0
A      1  0.2194973661073  0.1980301402920  0.9165490959561 1.0
A      1  0.9424768661755  0.2984216253472  0.0831985549713 1.0
A      1  0.0536325177203  0.2986711765358  0.2505138219095 1.0
A      1  0.9414676355405  0.3002636808524  0.4167339225629 1.0
A      1  0.0534215811490  0.2999130394386  0.5830479105805 1.0
A      1  0.9417177500761  0.2996820615048  0.7495264660092 1.0
A      1  0.0527626173549  0.2984292614678  0.9167916645882 1.0
A      1  0.6090268336709  0.0994770643002  0.0824189384177 1.0
A      1  0.7195638008268  0.0989802418180  0.2498034337241 1.0
A      1  0.6087968496654  0.0974031954882  0.4157389812605 1.0
A      1  0.7195913791251  0.1019238386122  0.5826327922294 1.0
A      1  0.6088937585299  0.1011659303736  0.7498791214148 1.0
A      1  0.7199488593047  0.0999094130920  0.9160946951255 1.0
A      1  0.4422188327445  0.1983377792936  0.0806342420045 1.0
A      1  0.5520051474919  0.1985573995345  0.2472168855747 1.0
A      1  0.4410026368149  0.1962075264962  0.4153804846041 1.0
A      1  0.5522150870079  0.1984665376804  0.5830380788357 1.0
A      1  0.4419395082802  0.1989254244116  0.7499784390356 1.0
A      1  0.5534328203196  0.2005257479590  0.9154176472403 1.0
A      1  0.2747467139266  0.2983521148855  0.0825661837266 1.0
A      1  0.3850649263213  0.2956123729658  0.2442896783719 1.0
A      1  0.2724579980950  0.2971186834627  0.4162728266796 1.0
A      1  0.3827908045538  0.2927073732126  0.5830814010786 1.0
A      1  0.2747918376993  0.2970533427799  0.7506444732787 1.0
A      1  0.3863465287558  0.2997326717802  0.9159393759342 1.0
A      1  0.1080225319349  0.3986790032974  0.0842851722663 1.0
A      1  0.2201444992384  0.3987203362569  0.2506541372385 1.0
A      1  0.1096488777781  0.3999128689213  0.4174774763262 1.0
A      1  0.2239869302974  0.4024047923412  0.5848442784166 1.0
A      1  0.1074733420941  0.3979624554885  0.7501224693060 1.0
A      1  0.2184120498719  0.3969208629256  0.9194716683343 1.0
A      1  0.9419018980579  0.4990407590145  0.0837778548382 1.0
A      1  0.0532765658740  0.4987317587500  0.2498633915919 1.0
A      1  0.9425854009766  0.4989503441710  0.4170684619744 1.0
A      1  0.0522619557465  0.4984193497774  0.5835465062448 1.0
A      1  0.9424087103589  0.4998045824110  0.7506897858143 1.0
A      1  0.0539377844215  0.4989745599383  0.9169286606609 1.0
A      1  0.7755787404484  0.1985990574388  0.0824046154187 1.0
A      1  0.8868220207974  0.1985404834892  0.2496684657741 1.0
A      1  0.7761046950020  0.2003715695638  0.4164768040182 1.0
A      1  0.8851940639137  0.2011369804569  0.5830915832279 1.0
A      1  0.7743047527875  0.2016427468544  0.7484105159423 1.0
A      1  0.8860468872854  0.1995189932417  0.9160114941420 1.0
A      1  0.6089367891440  0.2996511799099  0.0829917832346 1.0
A      1  0.7208181591045  0.2975721331009  0.2482962634502 1.0
A      1  0.6088491362779  0.2910154503371  0.4116944786878 1.0
A      1  0.7137185747936  0.3052464064050  0.5808822065154 1.0
A      1  0.6074044993268  0.3026540318818  0.7468717526418 1.0
A      1  0.7193808677594  0.2996988886719  0.9152051604095 1.0
A      1  0.4427233789331  0.3990997988493  0.0832968620647 1.0
A      1  0.5560436527942  0.4020435762978  0.2518302698488 1.0
A      1  0.4432227378265  0.3995831204506  0.7487084037717 1.0
A      1  0.5534845073437  0.4001587178001  0.9165831735377 1.0
A      1  0.2744324479392  0.4985425808415  0.0831094053557 1.0
A      1  0.3849171407602  0.4993035547575  0.2473094810375 1.0
A      1  0.2780774872769  0.5000769061164  0.4185562831877 1.0
A      1  0.2717311914695  0.4928520546589  0.7582805438426 1.0
A      1  0.3868897375169  0.4988969526722  0.9175219429682 1.0
A      1  0.1083462290812  0.5990094325715  0.0835563187562 1.0
A      1  0.2194683979931  0.5988530535363  0.2499802009842 1.0
A      1  0.1074474572281  0.5994547346375  0.4142163575320 1.0
A      1  0.2115336328239  0.6016412102584  0.5776819016483 1.0
A      1  0.1091480417359  0.5992058619842  0.7497739236070 1.0
A      1  0.2200093370673  0.5994890309177  0.9176392960982 1.0
A      1  0.9423719762369  0.6995295236299  0.0839711984629 1.0
A      1  0.0531366828694  0.6995837586570  0.2495147036106 1.0
A      1  0.9436051597214  0.7010412034603  0.4171397290421 1.0
A      1  0.0519906091888  0.7014936856455  0.5835706594859 1.0
A      1  0.9433031738084  0.7010553258585  0.7514037729701 1.0
A      1  0.0539856649293  0.6993466773091  0.9169608821962 1.0
A      1  0.7768992727475  0.3972064020927  0.0804897984975 1.0
A      1  0.8882320471878  0.3977890119753  0.2499342833962 1.0
A      1  0.7717330430441  0.4028055849582  0.4152890867265 1.0
A      1  0.8853385394131  0.3997507457608  0.5829060425865 1.0
A      1  0.7759222672097  0.4003777043543  0.7507575894999 1.0
A      1  0.8875929082021  0.3992614933294  0.9162768813194 1.0
A      1  0.6093594990109  0.4992150179245  0.0827022837846 1.0
A      1  0.7253427651850  0.4944592828570  0.2424394536872 1.0
A      1  0.7238181504925  0.5040578571262  0.5890740494249 1.0
A      1  0.6119855714965  0.5031745225083  0.7555091370453 1.0
A      1  0.7219153260955  0.5001517589856  0.9182380841008 1.0
A      1  0.4400325357114  0.5996566208395  0.0808146445646 1.0
A      1  0.5469798086013  0.6011482829686  0.2423969546985 1.0
A      1  0.4492158540729  0.6008776991244  0.7574379258189 1.0
A      1  0.5554557158882  0.6011433432085  0.9204751915652 1.0
A      1  0.2745571514484  0.6993850729581  0.0832993985994 1.0
A      1  0.3847651737064  0.7003110321834  0.2491380689187 1.0
A      1  0.2762315290895  0.6994664825344  0.4154924318262 1.0
A      1  0.3914253976699  0.7057369887296  0.5773482730232 1.0
A      1  0.2764774176273  0.6981952556943  0.7491620185005 1.0
A      1  0.3863088440465  0.7004678901497  0.9170560229248 1.0
A      1  0.1086758134660  0.7994300709137  0.0830786588236 1.0
A      1  0.2191870811513  0.7994501167149  0.2496687227325 1.0
A      1  0.1094371859811  0.7995933847789  0.4167746918946 1.0
A      1  0.2207306509869  0.7995117687658  0.5831334041747 1.0
A      1  0.1096864426608  0.7995823376281  0.7498592961682 1.0
A      1  0.2201008544098  0.7992554475005  0.9161440022073 1.0
A      1  0.9421677324010  0.8994167193850  0.0837597977904 1.0
A      1  0.0527434854288  0.8990183748094  0.2500735760337 1.0
A      1  0.9423546797987  0.9001720363850  0.4168950736860 1.0
A      1  0.0534281280603  0.9000831632155  0.5833569174628 1.0
A      1  0.9429178328991  0.9008050506248  0.7503031416511 1.0
A      1  0.0534207768166  0.8992339762477  0.9166566351867 1.0
A      1  0.7763032522588  0.6003036841988  0.0833958625821 1.0
A      1  0.8870839596114  0.5992673371888  0.2511843680751 1.0
A      1  0.7817119314085  0.6018342735323  0.4230196732995 1.0
A      1  0.8893711395914  0.6010387886113  0.5861972445128 1.0
A      1  0.7776901855585  0.6023961554292  0.7530422905056 1.0
A      1  0.8881925183606  0.5997132057951  0.9177562072758 1.0
A      1  0.6097352749261  0.7008020518119  0.0838031239385 1.0
A      1  0.7186806329821  0.6966895320311  0.2531080174362 1.0
A      1  0.6074503719367  0.7058660602180  0.4231411225240 1.0
A      1  0.7226261914023  0.7032198933846  0.5863548006438 1.0
A      1  0.6122118598296  0.7040281403877  0.7541644810170 1.0
A      1  0.7215629988875  0.7008772698149  0.9186257847267 1.0
A      1  0.4422349977791  0.7993117199597  0.0835399473719 1.0
A      1  0.5534798811640  0.7995029133868  0.2504667823222 1.0
A      1  0.4423532941069  0.8017617101042  0.4142671177789 1.0
A      1  0.5548679649475  0.8047764251172  0.5860323514150 1.0
A      1  0.4427131194735  0.7997235873786  0.7499209452959 1.0
A      1  0.5531893913101  0.8008947595699  0.9177547769883 1.0
A      1  0.2753465753430  0.8990351722327  0.0828175066849 1.0
A      1  0.3859890188254  0.8994867007732  0.2489128486379 1.0
A      1  0.2752912371353  0.8993754303724  0.4162953619366 1.0
A      1  0.3865924146198  0.9011506226146  0.5829768945651 1.0
A      1  0.2759052702756  0.8990423328784  0.7496740868718 1.0
A      1  0.3865950566989  0.8997259691966  0.9164261874688 1.0
A      1  0.1086961256494  0.9990485123017  0.0831371316502 1.0
A      1  0.2192160925990  0.9987129077497  0.2495969991643 1.0
A      1  0.1083672219036  0.9994089267336  0.4165036336421 1.0
A      1  0.2190501267607  0.9990747204913  0.5831116620219 1.0
A      1  0.1088277122260  0.9995620673507  0.7499466100975 1.0
A      1  0.2197631320429  0.9988462591249  0.9163286774016 1.0
A      1  0.7757173684775  0.7996883096827  0.0851053778298 1.0
A      1  0.8860354562088  0.7989402582290  0.2507496342517 1.0
A      1  0.7759110056710  0.8007235974743  0.4175168759645 1.0
A      1  0.8871955119889  0.8013537266362  0.5839811352050 1.0
A      1  0.7772984778362  0.8025150467233  0.7515396064633 1.0
A      1  0.8873161118573  0.7999372764474  0.9178173844987 1.0
A      1  0.6089347526894  0.8999368011408  0.0836823637825 1.0
A      1  0.7197164110112  0.8988686900853  0.2506194713039 1.0
A      1  0.6092523278067  0.9013492076731  0.4169530631209 1.0
A      1  0.7206953656392  0.9021143474591  0.5839181417745 1.0
A      1  0.6097823835852  0.9021245017542  0.7514123351660 1.0
A      1  0.7202031347969  0.9002087009018  0.9176335799441 1.0
A      1  0.4421328660364  0.9990719258653  0.0825689754853 1.0
A      1  0.5528257623738  0.9990977513281  0.2492614949304 1.0
A      1  0.4418001722355  0.9991189004032  0.4159584858885 1.0
A      1  0.5533454584427  0.0011744790249  0.5835735672791 1.0
A      1  0.4425032485073  0.9994717377558  0.7500015299596 1.0
A      1  0.5532135554902  0.0005331374176  0.9167388657694 1.0
A      1  0.7755040150817  0.9993669711372  0.0835830066772 1.0
A      1  0.8862541785041  0.9989866752124  0.2500519531352 1.0
A      1  0.7759545849002  0.0003206827407  0.4166803787531 1.0
A      1  0.8864942867391  0.0008083067667  0.5834410954656 1.0
A      1  0.7757791583843  0.0016138708999  0.7500523795839 1.0
A      1  0.8865455229990  0.9995536965996  0.9167759628820 1.0
END
