TITL AB-20764-5019-25 0.0000000000 4458.8459578500 -1500.1530011750 0 0  183 (P1) n - 1
REM
REM Run started: at Fri Oct 6 15:20:07 BST 2023 in /home/michal/install/eddp/airss/examples/1.11
REM pp3 from code version ## 0.9.3 July 2022 commit b0220bf5cbf550a3b7
REM
REM
REM
REM Total runtime: s
REM
REM
REM ./AB.cell (a186c3e4acc5915692489c59fabd1559)
REM ## AIRSS Version 0.9.3 July 2022 commit b0220bf5cbf550a3b7
REM compiler GCC version 11.4.0
REM options -cpp -imultiarch x86_64-linux-gnu -mtune=generic -march=x86-64 -g -Og -fpre-include=/usr/include/finclude/math-vector-fortran.h
REM cmdline: airss.pl -pp3 max 100 -seed AB 
REM seed -1754475169 -1468662508 1290648535 -1671063542 362959080 -586868816 718864541 2123463401
REM
REM AB.pp (46f9ffe235eb1beff4ce53cde2d82919)
REM 
CELL 1.54180   16.99142   16.35000   16.05000   90.00000   90.00000   90.00000
LATT -1
SFAC A  B  
A      1  0.9455804506784  0.1008713409600  0.0855174798047 1.0
A      1  0.0565647130656  0.1011679505147  0.2518317565512 1.0
A      1  0.4528520371983  0.3934886013985  0.4339174609134 1.0
A      1  0.6153352808441  0.4990137556597  0.4237002185979 1.0
A      1  0.5639873560571  0.6002139354909  0.5943261558175 1.0
A      1  0.5606718731439  0.4000735057186  0.5922330102380 1.0
A      1  0.3894765229238  0.4942417760026  0.5965599516218 1.0
B      2  0.4173691018120  0.6388351065355  0.3949332915776 1.0
B      2  0.3384805075778  0.4038677754782  0.3352861896718 1.0
B      2  0.4690175890110  0.5598067420137  0.4785212187563 1.0
B      2  0.4774296637035  0.5298162170518  0.3562106100270 1.0
A      1  0.9455730991712  0.1005445128307  0.4186483983349 1.0
A      1  0.0566888783423  0.1001246226870  0.5854855712480 1.0
A      1  0.9460396020520  0.1002269756377  0.7522237046441 1.0
A      1  0.0566685605013  0.1003081596086  0.9188241123195 1.0
A      1  0.2790702746959  0.1008162085698  0.0853206678676 1.0
A      1  0.3902455530767  0.0982036823136  0.2515883683836 1.0
A      1  0.2788491561488  0.0990438918245  0.4187062652312 1.0
A      1  0.3902954466797  0.0981827042907  0.5852888897295 1.0
A      1  0.2795056263020  0.0997769023456  0.7522939560874 1.0
A      1  0.3899997354404  0.0993073217695  0.9181900847111 1.0
A      1  0.1121297913372  0.2008996575602  0.0854955408537 1.0
A      1  0.2236060237494  0.2016030780494  0.2526173777925 1.0
A      1  0.1116135431831  0.2002074186001  0.4187438386148 1.0
A      1  0.2226723332694  0.1982027081717  0.5876444291402 1.0
A      1  0.1121691491650  0.2001749344203  0.7523427041703 1.0
A      1  0.2231012308421  0.1995995679929  0.9185687142715 1.0
A      1  0.9446685220674  0.3004999703837  0.0854666216750 1.0
A      1  0.0553663314102  0.3007596382833  0.2519070557663 1.0
A      1  0.9471355070884  0.3013081998468  0.4188521398471 1.0
A      1  0.0580168325102  0.3006668045737  0.5846882896923 1.0
A      1  0.9460586375577  0.3001471917938  0.7519925342097 1.0
A      1  0.0563208952577  0.2998957701593  0.9181094306990 1.0
A      1  0.6130144946579  0.1003794611518  0.0855122184060 1.0
A      1  0.7239735091550  0.1007535672198  0.2524459362591 1.0
A      1  0.6130397351633  0.0992780392264  0.4191133641733 1.0
A      1  0.7239934732063  0.1003564026911  0.5855744157239 1.0
A      1  0.6130567405850  0.0994748356335  0.7519764039519 1.0
A      1  0.7237944169932  0.1003863569143  0.9188818562186 1.0
A      1  0.4467506411324  0.1981850361725  0.0828155278992 1.0
A      1  0.5583678167191  0.1997682652746  0.2526541115242 1.0
A      1  0.4460614133330  0.1982594610388  0.4184515864028 1.0
A      1  0.5573035397078  0.1999452274514  0.5858664169673 1.0
A      1  0.4466656572849  0.1982130456865  0.7534239090874 1.0
A      1  0.5575974173121  0.2001211649311  0.9191975705131 1.0
A      1  0.2784444382708  0.3004972971008  0.0837772422677 1.0
A      1  0.3934730306713  0.2928630067704  0.2452023589059 1.0
A      1  0.2775264645007  0.2942802602273  0.4248578498404 1.0
A      1  0.3900018350720  0.2960156062947  0.5904123716871 1.0
A      1  0.2787810330813  0.2999891464646  0.7527832568324 1.0
A      1  0.3897714032562  0.2990868474005  0.9188486600042 1.0
A      1  0.1092634972045  0.4005537587408  0.0826171312341 1.0
A      1  0.2171908885114  0.4016249083449  0.2446213712588 1.0
A      1  0.1171760822529  0.4026913540205  0.4172498561780 1.0
A      1  0.2240676943539  0.4006991397354  0.5852185741681 1.0
A      1  0.1119234474294  0.4003179055353  0.7514035956080 1.0
A      1  0.2224289250706  0.3993373967230  0.9174137729894 1.0
A      1  0.9444472684338  0.5010914778588  0.0852616301835 1.0
A      1  0.0547483646962  0.5018586987647  0.2514828845866 1.0
A      1  0.9469339629086  0.5007724144907  0.4189350744025 1.0
A      1  0.0576062997760  0.5006412758363  0.5850065100852 1.0
A      1  0.9457646166459  0.5005416726502  0.7520609064322 1.0
A      1  0.0566970220549  0.5009258976031  0.9179179232506 1.0
A      1  0.7786595518942  0.2007872474864  0.0860899595754 1.0
A      1  0.8897187037643  0.2010864160353  0.2523595096982 1.0
A      1  0.7802263436897  0.2001280890199  0.4190989595718 1.0
A      1  0.8911282272275  0.2004345131632  0.5854814710084 1.0
A      1  0.7798805653219  0.1997941710164  0.7526171223319 1.0
A      1  0.8901507595696  0.2003404320664  0.9189833941371 1.0
A      1  0.6117183788030  0.3009324352841  0.0875024129867 1.0
A      1  0.7226641792331  0.3015585765603  0.2529332558328 1.0
A      1  0.6152455512316  0.2986534932253  0.4201413838627 1.0
A      1  0.7251912124348  0.2998239406147  0.5865519681702 1.0
A      1  0.6139466205113  0.2984893710467  0.7541377896933 1.0
A      1  0.7240553552166  0.3004026980646  0.9201688024121 1.0
A      1  0.4454498450306  0.3997853805051  0.0826573608637 1.0
A      1  0.5520252625028  0.4035243222834  0.2561914055485 1.0
A      1  0.4473853173696  0.3977539579630  0.7563406855325 1.0
A      1  0.5578779496125  0.3998591796159  0.9202859556454 1.0
A      1  0.2751992752179  0.5010181697187  0.0788151910096 1.0
A      1  0.3863526529937  0.5090023641727  0.2334314461797 1.0
A      1  0.2919484478447  0.5176583277034  0.4266569284249 1.0
A      1  0.2776813290703  0.5001000346227  0.7544500426529 1.0
A      1  0.3901543558599  0.5002711747964  0.9177190639795 1.0
A      1  0.1110609169314  0.6011516158679  0.0848624978005 1.0
A      1  0.2219206495339  0.6016584192618  0.2519286586910 1.0
A      1  0.1138103881337  0.6014009199572  0.4189865357703 1.0
A      1  0.2229619908521  0.6017277405281  0.5880435479442 1.0
A      1  0.1117336359286  0.6009242955255  0.7519331834264 1.0
A      1  0.2227116842858  0.6019186539285  0.9168155539504 1.0
A      1  0.9451539334807  0.7009659037439  0.0855847281250 1.0
A      1  0.0560457776911  0.7013700975085  0.2520088427939 1.0
A      1  0.9455442137843  0.7005808350433  0.4186719712558 1.0
A      1  0.0570006239484  0.7010773005770  0.5850145243435 1.0
A      1  0.9459163463532  0.7008454605389  0.7519619398716 1.0
A      1  0.0564823445718  0.7010962223627  0.9184539710144 1.0
A      1  0.7784945342260  0.4008449260064  0.0863779427264 1.0
A      1  0.8892889795853  0.4011225196704  0.2522968209699 1.0
A      1  0.7807567568086  0.4002480271097  0.4196813469727 1.0
A      1  0.8917899911655  0.4001977799332  0.5858888909560 1.0
A      1  0.7800449573722  0.3997054819391  0.7533847769413 1.0
A      1  0.8906298862764  0.4004672710928  0.9191473399383 1.0
A      1  0.6117994465207  0.5004542013381  0.0856832011282 1.0
A      1  0.7217300474809  0.5007952961447  0.2534026288101 1.0
A      1  0.7269847689749  0.4996980415597  0.5875888311911 1.0
A      1  0.6145295154471  0.4991616078439  0.7561488029770 1.0
A      1  0.7247915603358  0.5006321469754  0.9203037106435 1.0
A      1  0.4470031019864  0.6040660848032  0.0781911804632 1.0
A      1  0.5581341049815  0.6052300258444  0.2457708301923 1.0
A      1  0.4468737982858  0.6000862505597  0.7532002065353 1.0
A      1  0.5583719712345  0.6007166921824  0.9179511342626 1.0
A      1  0.2784299019650  0.7006205338792  0.0836778454520 1.0
A      1  0.3893185609527  0.7038058718008  0.2476024815448 1.0
A      1  0.2763612451209  0.7079050268606  0.4166139489410 1.0
A      1  0.3939132638051  0.6922899286013  0.5767977100199 1.0
A      1  0.2805330867352  0.7005520501805  0.7500284715610 1.0
A      1  0.3897742589639  0.7015613358351  0.9161960930300 1.0
A      1  0.1119032449298  0.8009450280179  0.0846096046312 1.0
A      1  0.2221172322233  0.8021946065487  0.2500528573077 1.0
A      1  0.1108239726870  0.8020688146466  0.4182833642185 1.0
A      1  0.2243017582908  0.8003366781932  0.5849671672429 1.0
A      1  0.1129264690757  0.8004527213355  0.7515326962590 1.0
A      1  0.2233035236826  0.8008654258769  0.9176385667367 1.0
A      1  0.9457250705641  0.9009568449205  0.0852951907869 1.0
A      1  0.0560789607313  0.9013661345909  0.2516325754080 1.0
A      1  0.9448181732126  0.9006682545604  0.4186586362721 1.0
A      1  0.0569607160996  0.9006139939014  0.5852945806314 1.0
A      1  0.9462659920235  0.9005936871238  0.7519188461824 1.0
A      1  0.0568421094237  0.9007327811553  0.9183442392404 1.0
A      1  0.7783878104346  0.6010002238585  0.0863938306311 1.0
A      1  0.8889830503871  0.6010176785365  0.2524694952008 1.0
A      1  0.7790185239717  0.6006312519860  0.4194347148791 1.0
A      1  0.8913415029764  0.6007251993187  0.5855396753452 1.0
A      1  0.7797340500712  0.6006761408121  0.7526995638905 1.0
A      1  0.8905420431847  0.6008552974356  0.9189670628096 1.0
A      1  0.6135936874340  0.7026305417892  0.0831424868521 1.0
A      1  0.7231848321242  0.7015714276406  0.2528449885411 1.0
A      1  0.6058671281998  0.6952070293498  0.4191855038259 1.0
A      1  0.7251360615737  0.7010391662088  0.5853575608193 1.0
A      1  0.6143481754003  0.7018022957736  0.7542147876263 1.0
A      1  0.7248038060433  0.7009517087176  0.9190047375450 1.0
A      1  0.4460031445455  0.8019255927607  0.0833431360837 1.0
A      1  0.5569575665182  0.8021269944010  0.2508846143477 1.0
A      1  0.4453050389942  0.8008058493217  0.4165111663122 1.0
A      1  0.5576058027705  0.7994826092131  0.5848588698822 1.0
A      1  0.4462352472132  0.7990117308221  0.7492033692431 1.0
A      1  0.5567157097286  0.8010899674830  0.9177571292971 1.0
A      1  0.2789998545586  0.9008487638494  0.0842523585182 1.0
A      1  0.3895574604312  0.9010960474898  0.2509235323657 1.0
A      1  0.2785170343015  0.9025634349629  0.4176355704002 1.0
A      1  0.3904445077347  0.8976532824410  0.5840311052321 1.0
A      1  0.2794977799369  0.9002433834917  0.7514077857129 1.0
A      1  0.3902002410029  0.9003631933888  0.9171680282769 1.0
A      1  0.1122501587587  0.0008704305900  0.0850294621257 1.0
A      1  0.2226590795887  0.0013612748755  0.2512293327955 1.0
A      1  0.1116589186468  0.0009133736728  0.4184916410688 1.0
A      1  0.2235224139522  0.9994924997615  0.5853626058741 1.0
A      1  0.1127471334768  0.0004306386793  0.7519473488656 1.0
A      1  0.2233604950142  0.0002766472461  0.9184360895973 1.0
A      1  0.7794915841941  0.8012449812646  0.0856035340757 1.0
A      1  0.8898100874483  0.8010467344609  0.2523234436557 1.0
A      1  0.7776482815975  0.7996139036840  0.4187924928851 1.0
A      1  0.8905906078300  0.8008605455264  0.5851147406301 1.0
A      1  0.7799977188584  0.8009246548740  0.7520393863926 1.0
A      1  0.8904877805847  0.8009705189527  0.9187446745909 1.0
A      1  0.6129284875085  0.9013336477987  0.0847500037065 1.0
A      1  0.7236986973377  0.9011630313630  0.2519160006571 1.0
A      1  0.6124473425216  0.8987419912624  0.4184832178172 1.0
A      1  0.7238389203389  0.9005757361524  0.5853881451934 1.0
A      1  0.6128802094832  0.9003426044600  0.7516257719886 1.0
A      1  0.7236782229223  0.9005865073337  0.9185595616738 1.0
A      1  0.4460241206326  0.0000941350822  0.0845444311061 1.0
A      1  0.5571810750718  0.0005758127517  0.2519029076191 1.0
A      1  0.4462892777540  0.9995051979282  0.4184274915893 1.0
A      1  0.5571192112754  0.9995933177974  0.5850233514956 1.0
A      1  0.4461788398683  0.9989894693985  0.7511733222002 1.0
A      1  0.5569913053859  0.0005902854758  0.9182920197153 1.0
A      1  0.7793882205015  0.0008944297264  0.0853638416496 1.0
A      1  0.8901001128288  0.0010538202586  0.2520360206468 1.0
A      1  0.7789828508951  0.0000102629153  0.4188343386914 1.0
A      1  0.8903200203850  0.0005791013060  0.5854324576224 1.0
A      1  0.7795687398904  0.0002829179127  0.7521212568026 1.0
A      1  0.8902700195458  0.0005577291106  0.9187227234448 1.0
END
