TITL AB-20764-5019-3 0.0000000000 4458.8459578500 -1500.9130139185 0 0  183 (P1) n - 1
REM
REM Run started: at Fri Oct 6 15:19:20 BST 2023 in /home/michal/install/eddp/airss/examples/1.11
REM pp3 from code version ## 0.9.3 July 2022 commit b0220bf5cbf550a3b7
REM
REM
REM
REM Total runtime: s
REM
REM
REM ./AB.cell (a186c3e4acc5915692489c59fabd1559)
REM ## AIRSS Version 0.9.3 July 2022 commit b0220bf5cbf550a3b7
REM compiler GCC version 11.4.0
REM options -cpp -imultiarch x86_64-linux-gnu -mtune=generic -march=x86-64 -g -Og -fpre-include=/usr/include/finclude/math-vector-fortran.h
REM cmdline: airss.pl -pp3 max 100 -seed AB 
REM seed -1931713299 1373226643 641697049 1155040852 853515214 49859080 1127340118 -1917942882
REM
REM AB.pp (46f9ffe235eb1beff4ce53cde2d82919)
REM 
CELL 1.54180   16.99142   16.35000   16.05000   90.00000   90.00000   90.00000
LATT -1
SFAC A  B  
A      1  0.9452375888680  0.1004589270283  0.0803068238379 1.0
A      1  0.0558252231758  0.0999911098801  0.2468530745787 1.0
A      1  0.4439605994890  0.6062800941733  0.4115701504108 1.0
A      1  0.3787903939543  0.5045237241880  0.5753977049558 1.0
A      1  0.5602644669717  0.6066091392559  0.5707837381691 1.0
A      1  0.6185860504858  0.5024864947154  0.4093019977460 1.0
A      1  0.6149972963701  0.2996185385061  0.4115057334765 1.0
B      2  0.3800471723986  0.3957775347434  0.4499622928584 1.0
B      2  0.5006478416983  0.4995761455536  0.6622919170545 1.0
B      2  0.4739631855290  0.3619454097409  0.3743555542852 1.0
B      2  0.4818341672675  0.4605815328159  0.4598545277420 1.0
A      1  0.9448391936212  0.0998147187004  0.4137073129602 1.0
A      1  0.0563990481968  0.1000611610132  0.5807930249219 1.0
A      1  0.9452873910049  0.1001644916028  0.7473544727222 1.0
A      1  0.0561511640334  0.1004437357422  0.9139135349630 1.0
A      1  0.2787711021765  0.1004485843287  0.0807290607401 1.0
A      1  0.3894802956174  0.1013181246847  0.2482419150921 1.0
A      1  0.2780497709168  0.0996183692869  0.4140093291720 1.0
A      1  0.3893079503044  0.1011487901781  0.5808545399052 1.0
A      1  0.2783701530222  0.1002196625996  0.7477639235222 1.0
A      1  0.3896108840673  0.1000896088691  0.9146638428534 1.0
A      1  0.1115937820840  0.2003635507620  0.0803023016286 1.0
A      1  0.2218070756269  0.1991833218829  0.2461752171871 1.0
A      1  0.1093625912450  0.1988329462858  0.4138366454710 1.0
A      1  0.2228983225559  0.2000718492896  0.5809198645713 1.0
A      1  0.1115417876425  0.2000367847484  0.7473172467139 1.0
A      1  0.2225961494248  0.2000926117374  0.9144499494337 1.0
A      1  0.9456639872786  0.3004469541213  0.0804190279120 1.0
A      1  0.0565276679533  0.3002290375970  0.2470597810277 1.0
A      1  0.9449321674932  0.3001549206644  0.4137920299827 1.0
A      1  0.0563767346401  0.3000766059854  0.5804628662430 1.0
A      1  0.9459614327908  0.3000793282741  0.7471357534772 1.0
A      1  0.0568943723758  0.3005459924284  0.9137699865575 1.0
A      1  0.6120498186267  0.1008297214853  0.0806687338836 1.0
A      1  0.7228792049107  0.1010036941068  0.2469944916699 1.0
A      1  0.6117360864404  0.1011534027902  0.4136394730539 1.0
A      1  0.7236753948368  0.0998449810544  0.5804332978635 1.0
A      1  0.6125146744377  0.1001267375921  0.7477041690365 1.0
A      1  0.7231014488850  0.1006396047687  0.9140324487685 1.0
A      1  0.4455112857474  0.2004159528504  0.0820114132684 1.0
A      1  0.5559972132972  0.2016406023245  0.2476313193329 1.0
A      1  0.4440313696317  0.2043528246758  0.4158068059624 1.0
A      1  0.5571505963823  0.1975420437832  0.5809125985933 1.0
A      1  0.4452752996609  0.1985236030248  0.7482496302126 1.0
A      1  0.5563477807366  0.2006009994597  0.9142354663187 1.0
A      1  0.2780706772302  0.3003902892002  0.0816388666176 1.0
A      1  0.3884532102233  0.3006346506012  0.2485382114388 1.0
A      1  0.2714374632506  0.2958215100927  0.4118801370622 1.0
A      1  0.3908627038669  0.3020616994314  0.5832897660161 1.0
A      1  0.2768551920494  0.2993313287793  0.7479306589281 1.0
A      1  0.3887023567582  0.2985694529650  0.9178177018704 1.0
A      1  0.1119764180529  0.4006397790022  0.0804574604837 1.0
A      1  0.2223555599792  0.4004763157704  0.2470589610818 1.0
A      1  0.1096529225473  0.4005643817934  0.4135170351980 1.0
A      1  0.2214577489869  0.3994365523832  0.5792185053752 1.0
A      1  0.1120170635105  0.4006243039691  0.7471153293068 1.0
A      1  0.2235358990176  0.4006159200759  0.9143774696929 1.0
A      1  0.9456464376812  0.5008226184253  0.0804079802329 1.0
A      1  0.0569220337971  0.5010247657956  0.2469158943042 1.0
A      1  0.9451139590894  0.5010972777812  0.4135824518281 1.0
A      1  0.0561683203704  0.5008090506774  0.5804312244420 1.0
A      1  0.9459803391547  0.5006103204696  0.7473069851061 1.0
A      1  0.0570693073888  0.5006189502472  0.9139610660645 1.0
A      1  0.7790475898008  0.2004277786642  0.0802203304916 1.0
A      1  0.8901489305332  0.2003794731753  0.2468959056395 1.0
A      1  0.7795450855312  0.1998150619503  0.4134376985347 1.0
A      1  0.8909563031511  0.1997349841885  0.5805846989421 1.0
A      1  0.7791076116508  0.1998672261763  0.7475136513386 1.0
A      1  0.8900160696237  0.2006088191555  0.9138097618551 1.0
A      1  0.6127424681987  0.3002889963555  0.0804494546089 1.0
A      1  0.7247140155857  0.3006990061456  0.2464921281045 1.0
A      1  0.5639098038214  0.3909463277850  0.5756513899589 1.0
A      1  0.7269140283979  0.2983654127431  0.5805247252897 1.0
A      1  0.6123073973810  0.3003734397908  0.7474570972765 1.0
A      1  0.7235364858443  0.3007372067364  0.9137223901019 1.0
A      1  0.4454996063935  0.4005551247080  0.0824798392802 1.0
A      1  0.5598041912187  0.4019266319666  0.2447524970062 1.0
A      1  0.4414470151042  0.3937504940619  0.7557446717714 1.0
A      1  0.5567947706408  0.4004073258369  0.9159318704844 1.0
A      1  0.2791816887241  0.5005844440893  0.0823461658656 1.0
A      1  0.3917774405347  0.4979145668557  0.2531922487129 1.0
A      1  0.2728472130726  0.5034240741427  0.4113540172509 1.0
A      1  0.2785309698926  0.5006246871151  0.7471289756135 1.0
A      1  0.3896357086325  0.5007099082744  0.9163528309660 1.0
A      1  0.1121215829652  0.6007529954945  0.0803753557765 1.0
A      1  0.2232711699536  0.6015627965835  0.2465384428461 1.0
A      1  0.1098873818999  0.6020465689886  0.4134379422032 1.0
A      1  0.2193539220582  0.6032376242050  0.5807426699446 1.0
A      1  0.1115681952938  0.6008102941569  0.7477209086799 1.0
A      1  0.2235118062164  0.6006619620243  0.9142697381102 1.0
A      1  0.9457671858004  0.7011496257417  0.0802973196064 1.0
A      1  0.0566724367980  0.7012836960793  0.2468357503956 1.0
A      1  0.9452051077063  0.7017435248666  0.4136344504954 1.0
A      1  0.0553798041877  0.7017147710833  0.5807109850586 1.0
A      1  0.9456188147901  0.7011214233118  0.7472664976683 1.0
A      1  0.0568049107142  0.7008885479856  0.9139617942726 1.0
A      1  0.7796131241771  0.4002665969643  0.0805382719825 1.0
A      1  0.8910907225834  0.4006470249304  0.2470103912843 1.0
A      1  0.7803018205168  0.4004877356594  0.4137517801316 1.0
A      1  0.8907735368610  0.4007008551475  0.5804586790164 1.0
A      1  0.7809817048192  0.3995099953562  0.7473653474936 1.0
A      1  0.8909860930483  0.4003936164191  0.9139675347541 1.0
A      1  0.6130788914280  0.5013746461362  0.0802589762623 1.0
A      1  0.7260546565098  0.5013850994302  0.2453722859793 1.0
A      1  0.7235340660704  0.5006063647093  0.5810613058060 1.0
A      1  0.6199172267514  0.5001559136372  0.7540640559750 1.0
A      1  0.7258765385720  0.5006337917817  0.9163124685645 1.0
A      1  0.4452316301031  0.6003321191529  0.0825085849934 1.0
A      1  0.5572266578282  0.6016561917422  0.2464451830864 1.0
A      1  0.4411657080553  0.6072601571414  0.7540701335675 1.0
A      1  0.5564689979380  0.6008351572299  0.9152002534169 1.0
A      1  0.2781922252959  0.7010633503433  0.0809819291599 1.0
A      1  0.3893127933888  0.7015520970149  0.2466183128357 1.0
A      1  0.2777001555858  0.7021557548771  0.4142900776034 1.0
A      1  0.3897002308814  0.7018046728284  0.5816316517219 1.0
A      1  0.2768187178549  0.7020818214673  0.7478095365621 1.0
A      1  0.3888435361681  0.7024639641500  0.9170546745728 1.0
A      1  0.1119824842367  0.8010183853306  0.0805878039638 1.0
A      1  0.2229067056576  0.8012965230324  0.2473787781645 1.0
A      1  0.1116791503406  0.8012742193750  0.4139583928179 1.0
A      1  0.2226617774512  0.8018125735052  0.5808102695546 1.0
A      1  0.1114599925593  0.8011687657510  0.7473349510198 1.0
A      1  0.2226137320204  0.8012377759841  0.9142789017460 1.0
A      1  0.9453131206243  0.9008806898191  0.0803340844582 1.0
A      1  0.0561679300102  0.9007741323958  0.2470527033966 1.0
A      1  0.9453154925386  0.9009560991416  0.4136745762670 1.0
A      1  0.0561620176920  0.9009732835489  0.5806457937509 1.0
A      1  0.9451067215506  0.9006977471129  0.7472718789053 1.0
A      1  0.0560776521624  0.9007604262720  0.9139649153895 1.0
A      1  0.7796858886512  0.6016705013983  0.0802281509001 1.0
A      1  0.8910324833432  0.6012736759589  0.2468590505899 1.0
A      1  0.7803571092405  0.6021744670389  0.4135169601842 1.0
A      1  0.8902557872314  0.6007688093750  0.5804167534392 1.0
A      1  0.7807484735041  0.6014041315531  0.7472207566992 1.0
A      1  0.8908992623443  0.6009382008214  0.9138736156765 1.0
A      1  0.6122931228505  0.7013004612250  0.0802497365186 1.0
A      1  0.7240653448849  0.7011922068964  0.2461161733063 1.0
A      1  0.6136835357833  0.7039983476139  0.4102854320689 1.0
A      1  0.7247238580844  0.7017821024129  0.5797950982813 1.0
A      1  0.6113679642673  0.6993686985116  0.7454308087813 1.0
A      1  0.7230357166881  0.7004471733614  0.9131400232140 1.0
A      1  0.4455464708772  0.8012760647157  0.0810145398316 1.0
A      1  0.5561981815758  0.8017540238875  0.2463618221047 1.0
A      1  0.4454042788271  0.8029388719756  0.4138792297562 1.0
A      1  0.5565907013814  0.8024192226704  0.5799615604291 1.0
A      1  0.4450085593090  0.8027479276686  0.7476394864209 1.0
A      1  0.5563875113914  0.8004628107410  0.9133933140188 1.0
A      1  0.2787445353241  0.9007665513934  0.0807621778337 1.0
A      1  0.3895752337156  0.9015523576360  0.2475117478013 1.0
A      1  0.2785663349373  0.9011267597353  0.4140298285222 1.0
A      1  0.3893602903435  0.9015507244389  0.5806362886855 1.0
A      1  0.2783522502201  0.9011638222660  0.7476205289709 1.0
A      1  0.3896034872331  0.9012131515309  0.9144041873996 1.0
A      1  0.1119931077793  0.0006522568535  0.0805050649937 1.0
A      1  0.2227837039035  0.0004577908876  0.2471596356907 1.0
A      1  0.1117277029819  0.0002454654221  0.4138391908675 1.0
A      1  0.2227681188892  0.0008134469717  0.5808614246172 1.0
A      1  0.1117800292912  0.0005220461088  0.7474836221567 1.0
A      1  0.2227512895938  0.0006277477100  0.9142334562355 1.0
A      1  0.7788318570080  0.8011392268385  0.0799258913773 1.0
A      1  0.8899032495363  0.8010727180815  0.2467093006428 1.0
A      1  0.7792503340940  0.8019378195198  0.4132372191481 1.0
A      1  0.8898471363719  0.8011697128675  0.5805173218151 1.0
A      1  0.7784624386594  0.8006797130642  0.7470754024690 1.0
A      1  0.8897033458830  0.8006567282224  0.9136755183130 1.0
A      1  0.6120410553409  0.9010662456705  0.0801395256446 1.0
A      1  0.7228826391875  0.9009669622442  0.2467207857313 1.0
A      1  0.6120854686249  0.9021822703061  0.4133889260081 1.0
A      1  0.7232441897217  0.9008889372052  0.5802914269162 1.0
A      1  0.6122125745978  0.9003418243176  0.7472367276489 1.0
A      1  0.7230157115337  0.9006204613320  0.9137145292392 1.0
A      1  0.4453804469019  0.0009119076103  0.0810707859403 1.0
A      1  0.5562427200587  0.0014284404583  0.2470732191580 1.0
A      1  0.4453256045906  0.0024437006863  0.4142495667706 1.0
A      1  0.5563865815499  0.0003814727644  0.5807777965029 1.0
A      1  0.4454140539721  0.0007175687836  0.7474099655494 1.0
A      1  0.5563894147469  0.0005978587368  0.9139775065362 1.0
A      1  0.7785845801012  0.0007795310317  0.0803819215706 1.0
A      1  0.8893461452543  0.0006103581898  0.2469045498159 1.0
A      1  0.7785267396453  0.0008247519352  0.4135039387059 1.0
A      1  0.8897665089912  0.0004084463945  0.5805050910032 1.0
A      1  0.7787357541558  0.0003152922194  0.7472598943003 1.0
A      1  0.8895266947999  0.0006054281586  0.9138596396576 1.0
END
