TITL AB-20764-5019-83 0.0000000000 4458.8459578500 -1488.6840343410 0 0  183 (P1) n - 1
REM
REM Run started: at Fri Oct 6 15:22:13 BST 2023 in /home/michal/install/eddp/airss/examples/1.11
REM pp3 from code version ## 0.9.3 July 2022 commit b0220bf5cbf550a3b7
REM
REM
REM
REM Total runtime: s
REM
REM
REM ./AB.cell (a186c3e4acc5915692489c59fabd1559)
REM ## AIRSS Version 0.9.3 July 2022 commit b0220bf5cbf550a3b7
REM compiler GCC version 11.4.0
REM options -cpp -imultiarch x86_64-linux-gnu -mtune=generic -march=x86-64 -g -Og -fpre-include=/usr/include/finclude/math-vector-fortran.h
REM cmdline: airss.pl -pp3 max 100 -seed AB 
REM seed 483132437 -1808626185 -593965905 1863760500 -900035677 1446462091 624365417 -765986153
REM
REM AB.pp (46f9ffe235eb1beff4ce53cde2d82919)
REM 
CELL 1.54180   16.99142   16.35000   16.05000   90.00000   90.00000   90.00000
LATT -1
SFAC A  B  
A      1  0.9446988624941  0.1026420070885  0.0824699618760 1.0
A      1  0.0555534204952  0.1021168707537  0.2492483110756 1.0
A      1  0.4594309453684  0.3923054262311  0.4271093838988 1.0
A      1  0.6256696308416  0.4989688309898  0.4102768769044 1.0
A      1  0.3825810439721  0.7118644740416  0.5891764357393 1.0
A      1  0.4429552433000  0.6089416925295  0.4385395205567 1.0
A      1  0.5432240122803  0.5003774170852  0.5806990170374 1.0
B      2  0.5613679749564  0.3469174640827  0.5655008532300 1.0
B      2  0.3306101689723  0.4015927600190  0.5018582483336 1.0
B      2  0.5298826317117  0.6534345628484  0.6122464852252 1.0
B      2  0.4957062764117  0.5092524091010  0.3344798022976 1.0
A      1  0.9449911959787  0.1015413093969  0.4163600375532 1.0
A      1  0.0553710187760  0.1037668210054  0.5833034850875 1.0
A      1  0.9439839246503  0.1030114112225  0.7494363966132 1.0
A      1  0.0552177210507  0.1030375960798  0.9159476255379 1.0
A      1  0.2780759463181  0.1024334095643  0.0823421791766 1.0
A      1  0.3888015488205  0.1026114142163  0.2495680398553 1.0
A      1  0.2776451980751  0.1002397110130  0.4161326471492 1.0
A      1  0.3879676414075  0.1014896468480  0.5837486398850 1.0
A      1  0.2775741699345  0.1039038681868  0.7498534724254 1.0
A      1  0.3886915713956  0.1029213725739  0.9173679767988 1.0
A      1  0.1110057060506  0.2026538917657  0.0823518498774 1.0
A      1  0.2216830770281  0.2003000362040  0.2464467005495 1.0
A      1  0.1104904688456  0.2011032614164  0.4162029536653 1.0
A      1  0.2239559115988  0.2062481413864  0.5821148169123 1.0
A      1  0.1113377817482  0.2035708224268  0.7494779124516 1.0
A      1  0.2221431409993  0.2029703087035  0.9163529715213 1.0
A      1  0.9442449766628  0.3021447284003  0.0828470992595 1.0
A      1  0.0559853739038  0.3017790990143  0.2498930006532 1.0
A      1  0.9465274602836  0.3014955280063  0.4159919717032 1.0
A      1  0.0532469894927  0.3018068407285  0.5835967390001 1.0
A      1  0.9429074273817  0.3019001528671  0.7500297775919 1.0
A      1  0.0543902147452  0.3018940452208  0.9171652609627 1.0
A      1  0.6112792462325  0.1025657787090  0.0825656096608 1.0
A      1  0.7228883289250  0.1023289427243  0.2489231054671 1.0
A      1  0.6127298550499  0.0993656903030  0.4150959711536 1.0
A      1  0.7234017819050  0.1010704133595  0.5824942702266 1.0
A      1  0.6117020799295  0.1021000224130  0.7506158186949 1.0
A      1  0.7221569486849  0.1026914334685  0.9161694664022 1.0
A      1  0.4447216438443  0.2030898897201  0.0830167768849 1.0
A      1  0.5563148895970  0.2011203231389  0.2490719881189 1.0
A      1  0.4455022256119  0.1990244806399  0.4170024857660 1.0
A      1  0.5573314748196  0.1918186401859  0.5827976028246 1.0
A      1  0.4452866183514  0.2011572576385  0.7532561711820 1.0
A      1  0.5560464253440  0.2031706709870  0.9156922153408 1.0
A      1  0.2782602654363  0.3029290034903  0.0834202907848 1.0
A      1  0.3909748282119  0.3037129536186  0.2508830371046 1.0
A      1  0.2749863598502  0.2946746194989  0.4083940518317 1.0
A      1  0.3991624607594  0.2971790742986  0.5910964426380 1.0
A      1  0.2781668235181  0.3045249097784  0.7503051580900 1.0
A      1  0.3887229169529  0.3037398995235  0.9157590417927 1.0
A      1  0.1094275714409  0.4025050692542  0.0832431925972 1.0
A      1  0.2196253517425  0.4014780533576  0.2484659226243 1.0
A      1  0.1125519982245  0.4030731029535  0.4179189577468 1.0
A      1  0.2105181284033  0.4057290806539  0.5921371948325 1.0
A      1  0.1060300898506  0.4028973758374  0.7538434521937 1.0
A      1  0.2203288242440  0.4015284146585  0.9181012105580 1.0
A      1  0.9435152963412  0.5029530206605  0.0829531578551 1.0
A      1  0.0555630019412  0.5027347728731  0.2498864751511 1.0
A      1  0.9450608634026  0.5023846935949  0.4161126274173 1.0
A      1  0.0507060876972  0.5049421202408  0.5838972232914 1.0
A      1  0.9420244835462  0.5032296370896  0.7503196053321 1.0
A      1  0.0546435304486  0.5035471283217  0.9177037511725 1.0
A      1  0.7781833819797  0.2021790437593  0.0818962160420 1.0
A      1  0.8899353931617  0.2020159247509  0.2491908621220 1.0
A      1  0.7803877954850  0.1999361683920  0.4157759312533 1.0
A      1  0.8879511123147  0.2024729917583  0.5828240445727 1.0
A      1  0.7761943266282  0.2028490663430  0.7486168391337 1.0
A      1  0.8880564658668  0.2025846022406  0.9158379624478 1.0
A      1  0.6122065085398  0.3015368811699  0.0807373333052 1.0
A      1  0.7249748503685  0.3015331322195  0.2479844341248 1.0
A      1  0.6174887229916  0.2970080514207  0.4142546165580 1.0
A      1  0.7203060466239  0.3028331230671  0.5816058069210 1.0
A      1  0.6079118431221  0.3054039484377  0.7430536358275 1.0
A      1  0.7215016167305  0.3028863002240  0.9140489626656 1.0
A      1  0.4447444447869  0.4027536084004  0.0814206360956 1.0
A      1  0.5598682343770  0.3985336939571  0.2445934710605 1.0
A      1  0.4449156441055  0.4076457651276  0.7474103848686 1.0
A      1  0.5552814009945  0.4025558334899  0.9154587434309 1.0
A      1  0.2744018453869  0.5031426914276  0.0796655036328 1.0
A      1  0.3793488752821  0.5015151465445  0.2407589000732 1.0
A      1  0.2748866419302  0.5114200291740  0.4096769169376 1.0
A      1  0.2709879375162  0.5042274625864  0.7579691793573 1.0
A      1  0.3882668227745  0.5036736272614  0.9163615984755 1.0
A      1  0.1090337984454  0.6036283241476  0.0832079680188 1.0
A      1  0.2189871483814  0.6056390116012  0.2472431347256 1.0
A      1  0.1081322466993  0.6045653968849  0.4156581755591 1.0
A      1  0.2116088254219  0.6097482431356  0.5833137601614 1.0
A      1  0.1071709305716  0.6039868495639  0.7511255381281 1.0
A      1  0.2199636021278  0.6052375730054  0.9186738814581 1.0
A      1  0.9439599054569  0.7038055515841  0.0829621569861 1.0
A      1  0.0546684818838  0.7043365014205  0.2494583044214 1.0
A      1  0.9437995854907  0.7038769804639  0.4159228532798 1.0
A      1  0.0508233997528  0.7064895324221  0.5834362744725 1.0
A      1  0.9428401091755  0.7039729696065  0.7502802068423 1.0
A      1  0.0544216269196  0.7043472871076  0.9169596347112 1.0
A      1  0.7783251904834  0.4017407332198  0.0815989819294 1.0
A      1  0.8909226092124  0.4021010468262  0.2486543877834 1.0
A      1  0.7833062089851  0.3993101083362  0.4149558918021 1.0
A      1  0.8891400059183  0.4015886975918  0.5832844927587 1.0
A      1  0.7775686549078  0.4021475865627  0.7497573182959 1.0
A      1  0.8891013135331  0.4025394593427  0.9162387644227 1.0
A      1  0.6118674922007  0.5025068566168  0.0808250110857 1.0
A      1  0.7263107474079  0.5023706439075  0.2455503477678 1.0
A      1  0.7269744945627  0.5014861475751  0.5832052361530 1.0
A      1  0.6149273809306  0.5049732306766  0.7568289655445 1.0
A      1  0.7240989561120  0.5031544410432  0.9178731082962 1.0
A      1  0.4443237153650  0.6032118660608  0.0824061158733 1.0
A      1  0.5625120340581  0.6091579121767  0.2409522190208 1.0
A      1  0.4455946599233  0.6056187037820  0.7511372466823 1.0
A      1  0.5552824379674  0.6040047717037  0.9175849012706 1.0
A      1  0.2783191228032  0.7034711171518  0.0842946966888 1.0
A      1  0.3906600523791  0.6993018423961  0.2544063124074 1.0
A      1  0.2760157362817  0.7061941466204  0.4181013860910 1.0
A      1  0.3679896486973  0.5172817452575  0.5959447425085 1.0
A      1  0.2752252065550  0.7031671989905  0.7518909772955 1.0
A      1  0.3879599174761  0.7037543436476  0.9171309068953 1.0
A      1  0.1112870444268  0.8032527701707  0.0834145691208 1.0
A      1  0.2225725092978  0.8032626833990  0.2502158675406 1.0
A      1  0.1099878772916  0.8037262339729  0.4164939334155 1.0
A      1  0.2182288829487  0.8071335048389  0.5842166779073 1.0
A      1  0.1097303534522  0.8037573046236  0.7504762016757 1.0
A      1  0.2214976460774  0.8040883156101  0.9172576697060 1.0
A      1  0.9447889533960  0.9032468029294  0.0828909592953 1.0
A      1  0.0555676967389  0.9031780788562  0.2496107737582 1.0
A      1  0.9438418185632  0.9024515922877  0.4163623442825 1.0
A      1  0.0534124338070  0.9046689345469  0.5833065017491 1.0
A      1  0.9436463066162  0.9031810512752  0.7497021905141 1.0
A      1  0.0550498760123  0.9036271515360  0.9165585300610 1.0
A      1  0.7780206173398  0.6041013420550  0.0823868921597 1.0
A      1  0.8904445031829  0.6031709279315  0.2490360002970 1.0
A      1  0.7811478070443  0.6035367101954  0.4152511028091 1.0
A      1  0.8875714931559  0.6044085450990  0.5830928491375 1.0
A      1  0.7780851516894  0.6038042913554  0.7500861512687 1.0
A      1  0.8890815975260  0.6035906534399  0.9166793999467 1.0
A      1  0.6128457640518  0.7056080659506  0.0798962933438 1.0
A      1  0.7248313440992  0.7042448476677  0.2495152713920 1.0
A      1  0.6095253271952  0.6988733067846  0.4173897636061 1.0
A      1  0.7167663228071  0.6999525129017  0.5829741214404 1.0
A      1  0.6104220739610  0.7037660573081  0.7495759486661 1.0
A      1  0.7223919815182  0.7033658069553  0.9153149518432 1.0
A      1  0.4446702074387  0.8024032777251  0.0845241919684 1.0
A      1  0.5561897017417  0.8039670969939  0.2500068608558 1.0
A      1  0.4439327860201  0.8044466391244  0.4174862458689 1.0
A      1  0.5542311043559  0.8065776024519  0.5823156400062 1.0
A      1  0.4441481773307  0.8048665802819  0.7514784554694 1.0
A      1  0.5549508158901  0.8037843362093  0.9162969401688 1.0
A      1  0.2779184466463  0.9030090674872  0.0833667735407 1.0
A      1  0.3887872365753  0.9019125613134  0.2501787127547 1.0
A      1  0.2771895928738  0.9033943270449  0.4170499874161 1.0
A      1  0.3868763628699  0.9057945820760  0.5837979977798 1.0
A      1  0.2771462532338  0.9035911680823  0.7504356193015 1.0
A      1  0.3884126257338  0.9033954680563  0.9175209889378 1.0
A      1  0.1113536790549  0.0030023574963  0.0828087071974 1.0
A      1  0.2222312118633  0.0020691418900  0.2494423789171 1.0
A      1  0.1106798404751  0.0023288704729  0.4163919863032 1.0
A      1  0.2206040391749  0.0051608127078  0.5836756827463 1.0
A      1  0.1105637268233  0.0034154238021  0.7499483572201 1.0
A      1  0.2218706028942  0.0033914259275  0.9163131452108 1.0
A      1  0.7783467745423  0.8039392245640  0.0825361998504 1.0
A      1  0.8890677516796  0.8037920123345  0.2496447299098 1.0
A      1  0.7765732027190  0.8018800258769  0.4167440271240 1.0
A      1  0.8858553446138  0.8032646286291  0.5829737714142 1.0
A      1  0.7767541911298  0.8030602883059  0.7491961539928 1.0
A      1  0.8882852448793  0.8037228588680  0.9162225616362 1.0
A      1  0.6112475800121  0.9035873348579  0.0828603812461 1.0
A      1  0.7225649417262  0.9032115079502  0.2492273616013 1.0
A      1  0.6115682662234  0.9012014313159  0.4156075838688 1.0
A      1  0.7217110209407  0.9021497778406  0.5829818513310 1.0
A      1  0.6110644377832  0.9032002314999  0.7502291954892 1.0
A      1  0.7218380113000  0.9031447222794  0.9162346990906 1.0
A      1  0.4445086567577  0.0026921121866  0.0835997822494 1.0
A      1  0.5554746372450  0.0024102125244  0.2492928319399 1.0
A      1  0.4449884514103  0.0019301342068  0.4163014844484 1.0
A      1  0.5554413052874  0.0001779953344  0.5830937680064 1.0
A      1  0.4443433171748  0.0031306316582  0.7505086617134 1.0
A      1  0.5551497464690  0.0032011661735  0.9166845440643 1.0
A      1  0.7780990312324  0.0029273785328  0.0826007153445 1.0
A      1  0.8891235933334  0.0028364675262  0.2493377238174 1.0
A      1  0.7783795076650  0.0011048278693  0.4159311720924 1.0
A      1  0.8885267906029  0.0029033295883  0.5829700410320 1.0
A      1  0.7777500064304  0.0026869843702  0.7496538897821 1.0
A      1  0.8886298623371  0.0030929686863  0.9161675289730 1.0
END
