TITL AB-20764-5019-183 0.0000000000 4458.8459578500 -1488.6205282431 0 0  183 (P1) n - 1
REM
REM Run started: at Fri Oct 6 15:26:01 BST 2023 in /home/michal/install/eddp/airss/examples/1.11
REM pp3 from code version ## 0.9.3 July 2022 commit b0220bf5cbf550a3b7
REM
REM
REM
REM Total runtime: s
REM
REM
REM ./AB.cell (a186c3e4acc5915692489c59fabd1559)
REM ## AIRSS Version 0.9.3 July 2022 commit b0220bf5cbf550a3b7
REM compiler GCC version 11.4.0
REM options -cpp -imultiarch x86_64-linux-gnu -mtune=generic -march=x86-64 -g -Og -fpre-include=/usr/include/finclude/math-vector-fortran.h
REM cmdline: airss.pl -pp3 max 100 -seed AB 
REM seed 1641359351 1151751761 621437795 -2051641074 1349420131 -849914779 -1823760836 956468926
REM
REM AB.pp (46f9ffe235eb1beff4ce53cde2d82919)
REM 
CELL 1.54180   16.99142   16.35000   16.05000   90.00000   90.00000   90.00000
LATT -1
SFAC A  B  
A      1  0.9440873832579  0.0997679027785  0.0816498468355 1.0
A      1  0.0554891601376  0.0996310757612  0.2491075542537 1.0
A      1  0.3768473230197  0.5015068407751  0.5820480510413 1.0
A      1  0.5542868861501  0.6096622935670  0.5733077960961 1.0
A      1  0.6310331033885  0.5168863584650  0.4219071765980 1.0
A      1  0.4559599364425  0.4971372985073  0.4078954848016 1.0
A      1  0.5554861731828  0.3968218549110  0.5627365602436 1.0
B      2  0.4497861957695  0.3441646474171  0.4340069964869 1.0
B      2  0.4585377892327  0.6509049124612  0.4391234658326 1.0
B      2  0.6663888919206  0.3992386332150  0.3307311444144 1.0
B      2  0.5024080682580  0.4978773249416  0.6649013022202 1.0
A      1  0.9445400082840  0.1008400049134  0.4155787226003 1.0
A      1  0.0546169213188  0.1003500223737  0.5821833617233 1.0
A      1  0.9430547094986  0.1004497624517  0.7484547307840 1.0
A      1  0.0541489945710  0.0999908751569  0.9155068803834 1.0
A      1  0.2764780526489  0.1000336205150  0.0823460363719 1.0
A      1  0.3870621471745  0.0984348421104  0.2477007973775 1.0
A      1  0.2758015683769  0.0991228546209  0.4156977734800 1.0
A      1  0.3867430051377  0.0994386084964  0.5832854015854 1.0
A      1  0.2760981291117  0.0997015109048  0.7495878197829 1.0
A      1  0.3875073310035  0.0995066686587  0.9161339348618 1.0
A      1  0.1098128540410  0.1998942992321  0.0826881710152 1.0
A      1  0.2211906592888  0.1994985151600  0.2498178587047 1.0
A      1  0.1117533059414  0.2005311395022  0.4158289351097 1.0
A      1  0.2215727793954  0.1997759857899  0.5822210630200 1.0
A      1  0.1095423980505  0.1996194401104  0.7491133124459 1.0
A      1  0.2202142433342  0.1992674383831  0.9162248813120 1.0
A      1  0.9429521027424  0.2997248615940  0.0825513394858 1.0
A      1  0.0542693762489  0.2995920399101  0.2488348096194 1.0
A      1  0.9457996921384  0.2993917696115  0.4159633101053 1.0
A      1  0.0547419620022  0.2993648476516  0.5828943046642 1.0
A      1  0.9440853190145  0.2995868362071  0.7496645440154 1.0
A      1  0.0545134625868  0.2997074450149  0.9159585395264 1.0
A      1  0.6103925940134  0.1002303191064  0.0810300207756 1.0
A      1  0.7217142620779  0.0976694138345  0.2477161477617 1.0
A      1  0.6114032157044  0.0959777796816  0.4146644782101 1.0
A      1  0.7212282924816  0.1010710632064  0.5812876792028 1.0
A      1  0.6100751929768  0.1011677705969  0.7486928684794 1.0
A      1  0.7208481902014  0.1001347304204  0.9140780210225 1.0
A      1  0.4429623517107  0.1999019274667  0.0828943114558 1.0
A      1  0.5541400480339  0.1986584448908  0.2468219695101 1.0
A      1  0.4421876934445  0.1896559765546  0.4148605282297 1.0
A      1  0.5533337914691  0.1982829381430  0.5829710747269 1.0
A      1  0.4424896851176  0.1983441284644  0.7495561304328 1.0
A      1  0.5541208883550  0.2010818663863  0.9146602358078 1.0
A      1  0.2756369571623  0.2998652469549  0.0834086905583 1.0
A      1  0.3862829068692  0.2989557242670  0.2523648863848 1.0
A      1  0.2811464197492  0.3016449207311  0.4173755259826 1.0
A      1  0.3886375228258  0.3010127135720  0.5835177302679 1.0
A      1  0.2742351315168  0.2985818573894  0.7491462106907 1.0
A      1  0.3857119350566  0.2975754658893  0.9178167101598 1.0
A      1  0.1085841654546  0.3996909704342  0.0819452810891 1.0
A      1  0.2188761388279  0.3986614956703  0.2482526542118 1.0
A      1  0.1102252173277  0.3992091985027  0.4158314221592 1.0
A      1  0.2186658047786  0.3988718707745  0.5830449931039 1.0
A      1  0.1091312069134  0.4002130932336  0.7495245214771 1.0
A      1  0.2206917971556  0.3991794783012  0.9149364238548 1.0
A      1  0.9431229644417  0.5004174877547  0.0827059394456 1.0
A      1  0.0551839838388  0.5001011807987  0.2487964605235 1.0
A      1  0.9477111224045  0.5018589002554  0.4160741429405 1.0
A      1  0.0553947439420  0.5007470736677  0.5828934799616 1.0
A      1  0.9443390007468  0.5010076722154  0.7503501335578 1.0
A      1  0.0552579769155  0.5004373932812  0.9161989675970 1.0
A      1  0.7778469620261  0.1979712676110  0.0781907210974 1.0
A      1  0.8900035068681  0.1984219172512  0.2482880460741 1.0
A      1  0.7773682431784  0.2014267142108  0.4139212776200 1.0
A      1  0.8877129127290  0.2007332736510  0.5819344446597 1.0
A      1  0.7760243794764  0.2009203412440  0.7481188197791 1.0
A      1  0.8879115520600  0.2002423790742  0.9144840449873 1.0
A      1  0.6095924079805  0.3004934026944  0.0816558687350 1.0
A      1  0.7258283655920  0.2917389674746  0.2407283799943 1.0
A      1  0.6052586866512  0.2876768686602  0.4145326232665 1.0
A      1  0.7214570257247  0.3008787831096  0.5813822120790 1.0
A      1  0.6082442059913  0.3036996014662  0.7453187546349 1.0
A      1  0.7205610986874  0.3006777249282  0.9145573078487 1.0
A      1  0.4411865025064  0.3992006874465  0.0788811492897 1.0
A      1  0.5428277056909  0.4007666863545  0.2460284859787 1.0
A      1  0.4376689042873  0.3938527334782  0.7563023253494 1.0
A      1  0.5544364587210  0.4007768571401  0.9164458354934 1.0
A      1  0.2724747245754  0.5001925932166  0.0778429801054 1.0
A      1  0.3791412562822  0.5001043556169  0.2365956503701 1.0
A      1  0.2718612179099  0.4999525792117  0.4135088331354 1.0
A      1  0.2750335247708  0.5005500527335  0.7501698075019 1.0
A      1  0.3869891425962  0.5010635883394  0.9163249917747 1.0
A      1  0.1089853221329  0.6009496990568  0.0819741725956 1.0
A      1  0.2194226998226  0.6012112328866  0.2481183005101 1.0
A      1  0.1109319650299  0.6019389602557  0.4155798356647 1.0
A      1  0.2183982098665  0.6022833875221  0.5830446395998 1.0
A      1  0.1094278688551  0.6009695085005  0.7496186440170 1.0
A      1  0.2207139538257  0.6016034714856  0.9151245600829 1.0
A      1  0.9445104205437  0.7019205688344  0.0818134196923 1.0
A      1  0.0560452299213  0.7017058480360  0.2485790965699 1.0
A      1  0.9481223041647  0.7040242011421  0.4157869642769 1.0
A      1  0.0548498288537  0.7017007649773  0.5829851821836 1.0
A      1  0.9443795921956  0.7019468550653  0.7493131396211 1.0
A      1  0.0549060088283  0.7012735954289  0.9156792966906 1.0
A      1  0.7773254837966  0.3998902470936  0.0820366318315 1.0
A      1  0.8880854643654  0.4002480403117  0.2501109905227 1.0
A      1  0.7866895760322  0.4022769293421  0.4225616635717 1.0
A      1  0.8910692079605  0.4006835012035  0.5855717569072 1.0
A      1  0.7795738830388  0.3994283800822  0.7509244981432 1.0
A      1  0.8891380978165  0.4001408755417  0.9164612239213 1.0
A      1  0.6099639997323  0.5003369901739  0.0841278080578 1.0
A      1  0.7278974614612  0.5088225046644  0.2430352124731 1.0
A      1  0.7238296173073  0.5014719166761  0.5891701961596 1.0
A      1  0.6196002617583  0.5020290986159  0.7580079207091 1.0
A      1  0.7241852045318  0.5009393210521  0.9196999533640 1.0
A      1  0.4440414792994  0.6008935746361  0.0819954505073 1.0
A      1  0.5535351228841  0.5987057382181  0.2543752841301 1.0
A      1  0.4398829230768  0.6062434426663  0.7549463496545 1.0
A      1  0.5548093968197  0.6010782020992  0.9174407083376 1.0
A      1  0.2771831446945  0.6999585677624  0.0837318165149 1.0
A      1  0.3900866918589  0.6979490153049  0.2530442240792 1.0
A      1  0.2818155368437  0.6980118415917  0.4168919130040 1.0
A      1  0.3876822850520  0.7011705597189  0.5835167053352 1.0
A      1  0.2752983915701  0.7018209092390  0.7494789932576 1.0
A      1  0.3867977086200  0.7022327148854  0.9180550983188 1.0
A      1  0.1110757248977  0.8008118809943  0.0825204655807 1.0
A      1  0.2229860362029  0.7996988088621  0.2497660889454 1.0
A      1  0.1130606813071  0.8008452107033  0.4158437246746 1.0
A      1  0.2215380208325  0.8009392422593  0.5824552202930 1.0
A      1  0.1100997742391  0.8013547523213  0.7492041139269 1.0
A      1  0.2209557375722  0.8010037500800  0.9162912030283 1.0
A      1  0.9441536158567  0.9006649981932  0.0819288597020 1.0
A      1  0.0556749372459  0.9001983080221  0.2490014326576 1.0
A      1  0.9453867806900  0.9017230991777  0.4155240218707 1.0
A      1  0.0547772735328  0.9006926547373  0.5823100258633 1.0
A      1  0.9433499041144  0.9010653252396  0.7487863950450 1.0
A      1  0.0542808012706  0.9005617517037  0.9156670046101 1.0
A      1  0.7788666418337  0.6035342763092  0.0804204879327 1.0
A      1  0.8923451609905  0.6026391308215  0.2480319864816 1.0
A      1  0.7878377039431  0.6074552035643  0.4150574061108 1.0
A      1  0.8901922951027  0.6011361083695  0.5834430838752 1.0
A      1  0.7801182366367  0.6029226193264  0.7508339915889 1.0
A      1  0.8897176692859  0.6011582544582  0.9160530925003 1.0
A      1  0.6107010474360  0.6999035250299  0.0838370228247 1.0
A      1  0.7225400742341  0.7030262340240  0.2488981364445 1.0
A      1  0.6119416787768  0.7078446364690  0.4131720404009 1.0
A      1  0.7225962237690  0.7013301024170  0.5812607734852 1.0
A      1  0.6098123853760  0.7001577941033  0.7473323764135 1.0
A      1  0.7209275819389  0.7011354322531  0.9150849029926 1.0
A      1  0.4436438718188  0.8000889833475  0.0832758573151 1.0
A      1  0.5546866343777  0.8010736417187  0.2478668827113 1.0
A      1  0.4440893098645  0.8058028568860  0.4154029537989 1.0
A      1  0.5546002484530  0.8039883461166  0.5821726193276 1.0
A      1  0.4433778715448  0.8022096193294  0.7495728048898 1.0
A      1  0.5544770150406  0.8002580943754  0.9157171060477 1.0
A      1  0.2771024253870  0.9002244285071  0.0823950803258 1.0
A      1  0.3877761771502  0.8996544770093  0.2482040548515 1.0
A      1  0.2769462453334  0.9001711978883  0.4158970836598 1.0
A      1  0.3872113737546  0.9009051848949  0.5832019730877 1.0
A      1  0.2765260353459  0.9008325406778  0.7495543756916 1.0
A      1  0.3878290575907  0.9006426964011  0.9161209809064 1.0
A      1  0.1104410886573  0.0002388629234  0.0822384790749 1.0
A      1  0.2213475133276  0.9994502916532  0.2489009667611 1.0
A      1  0.1106013924333  0.0004873438620  0.4157642707464 1.0
A      1  0.2207212275557  0.0001731750421  0.5827021129548 1.0
A      1  0.1097179993164  0.0004723923946  0.7491042169931 1.0
A      1  0.2208308378455  0.0000759806648  0.9159347717253 1.0
A      1  0.7773046114595  0.8013889753346  0.0817158800986 1.0
A      1  0.8890436969448  0.8012855859560  0.2486898306569 1.0
A      1  0.7793920776808  0.8036943284852  0.4154467157056 1.0
A      1  0.8884285674297  0.8011913426768  0.5822901521040 1.0
A      1  0.7767465617652  0.8013469996892  0.7483963727662 1.0
A      1  0.8877033377380  0.8008405353771  0.9152694805659 1.0
A      1  0.6104385765271  0.9002816360270  0.0815688154794 1.0
A      1  0.7217048835742  0.9006463041641  0.2483877091258 1.0
A      1  0.6118841665818  0.9020062509215  0.4149245201290 1.0
A      1  0.7216077446610  0.9014807417921  0.5818801098540 1.0
A      1  0.6103793426171  0.9009117126923  0.7490668092099 1.0
A      1  0.7211333873862  0.9006608737590  0.9149697957570 1.0
A      1  0.4437364058311  0.9999887465751  0.0818474995363 1.0
A      1  0.5541246525906  0.9997435050722  0.2479091658856 1.0
A      1  0.4433293870879  0.9983098335412  0.4155324262356 1.0
A      1  0.5541922843815  0.0008432854043  0.5824469113328 1.0
A      1  0.4434965431065  0.0003548904031  0.7493547489312 1.0
A      1  0.5544711954904  0.0005346675431  0.9152008349058 1.0
A      1  0.7772544832165  0.9998414675675  0.0812701116078 1.0
A      1  0.8889218482611  0.9999142865956  0.2484259925893 1.0
A      1  0.7788598484334  0.0014971681239  0.4151708632941 1.0
A      1  0.8881888590518  0.0008563855478  0.5820150344198 1.0
A      1  0.7767005960057  0.0010060423419  0.7481616221333 1.0
A      1  0.8876414692475  0.0005072486839  0.9150788930997 1.0
END
