TITL AB-20764-5019-280 0.0000000000 4458.8459578500 -1502.5773800537 0 0  183 (Pm) n - 1
REM
REM Run started: at Fri Oct 6 15:29:40 BST 2023 in /home/michal/install/eddp/airss/examples/1.11
REM pp3 from code version ## 0.9.3 July 2022 commit b0220bf5cbf550a3b7
REM
REM
REM
REM Total runtime: s
REM
REM
REM ./AB.cell (a186c3e4acc5915692489c59fabd1559)
REM ## AIRSS Version 0.9.3 July 2022 commit b0220bf5cbf550a3b7
REM compiler GCC version 11.4.0
REM options -cpp -imultiarch x86_64-linux-gnu -mtune=generic -march=x86-64 -g -Og -fpre-include=/usr/include/finclude/math-vector-fortran.h
REM cmdline: airss.pl -pp3 max 100 -seed AB 
REM seed -1681320880 549110436 -1226634176 -431107996 -1985563448 273385412 -1431443870 1686257693
REM
REM AB.pp (46f9ffe235eb1beff4ce53cde2d82919)
REM 
CELL 1.54180   16.99142   16.35000   16.05000   90.00000   90.00000   90.00000
LATT -1
SFAC A  B  
A      1  0.9458208415310  0.1000306464005  0.0814007059172 1.0
A      1  0.0569485724849  0.0997740116037  0.2479882195983 1.0
A      1  0.5575435383330  0.6077250806336  0.5772935395734 1.0
A      1  0.6186279510087  0.5057679320002  0.4129282103599 1.0
A      1  0.3806888208136  0.5050263491232  0.5858595035940 1.0
A      1  0.4723874105141  0.4000918470589  0.4563863773260 1.0
A      1  0.4448555438221  0.5963537774955  0.4135534152721 1.0
B      2  0.5251736054056  0.3384965071862  0.6176550536663 1.0
B      2  0.6088018247651  0.4000919786103  0.5418381378323 1.0
B      2  0.3628206632474  0.4000918241936  0.3498389081493 1.0
B      2  0.5251736704991  0.4616872446104  0.6176553703971 1.0
A      1  0.9457535446818  0.0991898248770  0.4146198822141 1.0
A      1  0.0552243575569  0.0989496151601  0.5819470131198 1.0
A      1  0.9452022016561  0.0997196241884  0.7484795483140 1.0
A      1  0.0565644674368  0.0997708049590  0.9152220918646 1.0
A      1  0.2794550632614  0.0999910303261  0.0814466142831 1.0
A      1  0.3905958703989  0.0980575118948  0.2476527234647 1.0
A      1  0.2788803144973  0.0989765507847  0.4148364613211 1.0
A      1  0.3890838302846  0.0986709809660  0.5805603540210 1.0
A      1  0.2789820180438  0.1000723519899  0.7481298198618 1.0
A      1  0.3900924859214  0.0997589860670  0.9133909380499 1.0
A      1  0.1124009194143  0.1998589945140  0.0819487035425 1.0
A      1  0.2235219569197  0.1996378192053  0.2486459895771 1.0
A      1  0.1102265740480  0.1986480417334  0.4151930424710 1.0
A      1  0.2191066586019  0.1970982300715  0.5835144226745 1.0
A      1  0.1107689161767  0.1997346232013  0.7493192140770 1.0
A      1  0.2229783512931  0.1993535284955  0.9153950347182 1.0
A      1  0.9459866872169  0.3001256051544  0.0818646457223 1.0
A      1  0.0578271596874  0.3002116293854  0.2486880379107 1.0
A      1  0.9455011415760  0.2999956856396  0.4149544689190 1.0
A      1  0.0553076161442  0.2997190663822  0.5820295080786 1.0
A      1  0.9448312482535  0.2999049475464  0.7486421192509 1.0
A      1  0.0565857877491  0.2999928923688  0.9157814040396 1.0
A      1  0.6131306965515  0.0998571821766  0.0803305257723 1.0
A      1  0.7244211691386  0.1000137664213  0.2472618476712 1.0
A      1  0.6130898706554  0.0976333619859  0.4124444586022 1.0
A      1  0.7243117115138  0.0988087526063  0.5806354592339 1.0
A      1  0.6127164823232  0.0997349873744  0.7472408979116 1.0
A      1  0.7237059171461  0.0999021758378  0.9143172213230 1.0
A      1  0.4467603104489  0.1981568788079  0.0780841465670 1.0
A      1  0.5579306535699  0.1986558307690  0.2468445361478 1.0
A      1  0.4448555167130  0.2038299023740  0.4135534003474 1.0
A      1  0.5575434667517  0.1924585855231  0.5772935494954 1.0
A      1  0.4465117560390  0.2001384946767  0.7469173624908 1.0
A      1  0.5573702484119  0.2001859662258  0.9135827605552 1.0
A      1  0.2785907598916  0.2998948463208  0.0805555588254 1.0
A      1  0.3918515408237  0.2932176114264  0.2404588396206 1.0
A      1  0.2736500607936  0.2954889377580  0.4196311754778 1.0
A      1  0.3806887713832  0.2951572504360  0.5858594686298 1.0
A      1  0.2762496403755  0.2998060695368  0.7506770160327 1.0
A      1  0.3898705944589  0.2998175087909  0.9141928645698 1.0
A      1  0.1127559134176  0.4000918970132  0.0828581799363 1.0
A      1  0.2269395667501  0.4000918540545  0.2503222095659 1.0
A      1  0.1112327572393  0.4000918654767  0.4153479093061 1.0
A      1  0.2197562142094  0.4000918205856  0.5836941450653 1.0
A      1  0.1102891345317  0.4000918666305  0.7493559925401 1.0
A      1  0.2226686783861  0.4000918561499  0.9157902088169 1.0
A      1  0.9459866994453  0.5000582457882  0.0818646534710 1.0
A      1  0.0578271740094  0.4999721435837  0.2486880453940 1.0
A      1  0.9455011621959  0.5001881052155  0.4149544763560 1.0
A      1  0.0553076409916  0.5004646401832  0.5820295150331 1.0
A      1  0.9448312735537  0.5002788455153  0.7486421270314 1.0
A      1  0.0565858067029  0.5001908781560  0.9157814138533 1.0
A      1  0.7792077563034  0.2001765898910  0.0810830709225 1.0
A      1  0.8909545485226  0.2001088593325  0.2478375420515 1.0
A      1  0.7812739306050  0.1984253678239  0.4143837381896 1.0
A      1  0.8900452666413  0.1996541635671  0.5817246020855 1.0
A      1  0.7790079880677  0.1995645364009  0.7483762305235 1.0
A      1  0.8901538338579  0.2000452488488  0.9150473160953 1.0
A      1  0.6119483544090  0.3006197083027  0.0821907489816 1.0
A      1  0.7242918555794  0.3004221588921  0.2470804156633 1.0
A      1  0.6186279384282  0.2944158243967  0.4129282539375 1.0
A      1  0.7235651115388  0.2983351556339  0.5824646478418 1.0
A      1  0.6129404073715  0.3002020707963  0.7474394608116 1.0
A      1  0.7234011941560  0.3000806785525  0.9148902211482 1.0
A      1  0.4459128429579  0.4000918641824  0.0802656145969 1.0
A      1  0.5532651066927  0.4000918826445  0.2544216912021 1.0
A      1  0.4435817341486  0.4000918029411  0.7481898670385 1.0
A      1  0.5567084346476  0.4000918939005  0.9140749522937 1.0
A      1  0.2785907749222  0.5002888836336  0.0805555703078 1.0
A      1  0.3918515518705  0.5069660878581  0.2404588722781 1.0
A      1  0.2736500938202  0.5046947265237  0.4196311936007 1.0
A      1  0.2762496675804  0.5003775923768  0.7506770270641 1.0
A      1  0.3898706162753  0.5003662037726  0.9141928655593 1.0
A      1  0.1124009422513  0.6003248037695  0.0819487163180 1.0
A      1  0.2235219816778  0.6005458892277  0.2486460042148 1.0
A      1  0.1102266144800  0.6015356903379  0.4151930559606 1.0
A      1  0.2191067088344  0.6030853954404  0.5835144437723 1.0
A      1  0.1107689541369  0.6004491123613  0.7493192287520 1.0
A      1  0.2229783812290  0.6008301788203  0.9153950483282 1.0
A      1  0.9458208689219  0.7001532143311  0.0814007193904 1.0
A      1  0.0569486005760  0.7004097593480  0.2479882320992 1.0
A      1  0.9457535808710  0.7009939666367  0.4146198943331 1.0
A      1  0.0552244071066  0.7012340820866  0.5819470250682 1.0
A      1  0.9452022480685  0.7004641847722  0.7484795617255 1.0
A      1  0.0565645008287  0.7004129651889  0.9152221056102 1.0
A      1  0.7793826679714  0.4000919186178  0.0810498305397 1.0
A      1  0.8908562093343  0.4000919154329  0.2483328463165 1.0
A      1  0.7796039318461  0.4000919042797  0.4154637443967 1.0
A      1  0.8894126426713  0.4000918879306  0.5818551489010 1.0
A      1  0.7790336735917  0.4000918973251  0.7484576308239 1.0
A      1  0.8901666290098  0.4000919174840  0.9151234483154 1.0
A      1  0.6119483659812  0.4995640761671  0.0821907567827 1.0
A      1  0.7242918775461  0.4997616863685  0.2470804030304 1.0
A      1  0.7235651689875  0.5018486647003  0.5824646708504 1.0
A      1  0.6129405125938  0.4999817251966  0.7474395921346 1.0
A      1  0.7234012376650  0.5001031733238  0.9148902648891 1.0
A      1  0.4467603190657  0.6020268443522  0.0780841718195 1.0
A      1  0.5579306632487  0.6015279529862  0.2468445337249 1.0
A      1  0.4465118181925  0.6000451405309  0.7469173714612 1.0
A      1  0.5573702717306  0.5999978331675  0.9135828057019 1.0
A      1  0.2794550802502  0.7001927089584  0.0814466265494 1.0
A      1  0.3905958870288  0.7021261984422  0.2476527368700 1.0
A      1  0.2788803399333  0.7012071224199  0.4148364759049 1.0
A      1  0.3890838772009  0.7015126249017  0.5805603689943 1.0
A      1  0.2789820579539  0.7001113114794  0.7481298347357 1.0
A      1  0.3900925141550  0.7004247217860  0.9133909507041 1.0
A      1  0.1126414399412  0.8001642482150  0.0813899695280 1.0
A      1  0.2234430357684  0.8003369339554  0.2478936979672 1.0
A      1  0.1124358150262  0.8005128522849  0.4148067052651 1.0
A      1  0.2227115207760  0.8009039786115  0.5815134135015 1.0
A      1  0.1123120603490  0.8001300199749  0.7483369124077 1.0
A      1  0.2234919096996  0.8002640103155  0.9147449254415 1.0
A      1  0.9460525871414  0.9000919322354  0.0812293727929 1.0
A      1  0.0569456089677  0.9000918856424  0.2479438730341 1.0
A      1  0.9460424041630  0.9000918983460  0.4145444084034 1.0
A      1  0.0563416009065  0.9000918471374  0.5815899892522 1.0
A      1  0.9457609516695  0.9000919063440  0.7481544076929 1.0
A      1  0.0568473526570  0.9000918846079  0.9147947190163 1.0
A      1  0.7792077862789  0.6000072687661  0.0810830839207 1.0
A      1  0.8909545758678  0.6000749711073  0.2478375550846 1.0
A      1  0.7812739554115  0.6017584308973  0.4143837479956 1.0
A      1  0.8900453164722  0.6005296151705  0.5817246118320 1.0
A      1  0.7790080565863  0.6006192820944  0.7483762550935 1.0
A      1  0.8901538754225  0.6001385917941  0.9150473322072 1.0
A      1  0.6131307188511  0.7003266123988  0.0803305410910 1.0
A      1  0.7244211904481  0.7001700659998  0.2472618583397 1.0
A      1  0.6130899059808  0.7025503850251  0.4124444675167 1.0
A      1  0.7243117518786  0.7013750313491  0.5806354765158 1.0
A      1  0.6127165198825  0.7004487530577  0.7472409067789 1.0
A      1  0.7237059452381  0.7002816663662  0.9143172317653 1.0
A      1  0.4460498658984  0.8005878249583  0.0803506855067 1.0
A      1  0.5573070306608  0.8006953588922  0.2464697076944 1.0
A      1  0.4461581414431  0.7996058480175  0.4142095614321 1.0
A      1  0.5568775075174  0.8020707194218  0.5807165929192 1.0
A      1  0.4458763806899  0.8001615488072  0.7471571772877 1.0
A      1  0.5568837393117  0.8000144665245  0.9139051261885 1.0
A      1  0.2793201641059  0.9000918713719  0.0811805226298 1.0
A      1  0.3903912323027  0.9000918550598  0.2476815469109 1.0
A      1  0.2794281123063  0.9000918378431  0.4143970811853 1.0
A      1  0.3896192239929  0.9000918058675  0.5807279354410 1.0
A      1  0.2790961302027  0.9000918347487  0.7479685150938 1.0
A      1  0.3902396994721  0.9000918532673  0.9139212300533 1.0
A      1  0.1126414273340  0.0000195607737  0.0813899631352 1.0
A      1  0.2234430223811  0.9998467774941  0.2478936918432 1.0
A      1  0.1124357965044  0.9996708899480  0.4148066992454 1.0
A      1  0.2227114959425  0.9992796431736  0.5815134039151 1.0
A      1  0.1123120378507  0.0000537231871  0.7483369034475 1.0
A      1  0.2234918920197  0.9999196953603  0.9147449177561 1.0
A      1  0.7794802223483  0.8001624751182  0.0809095361166 1.0
A      1  0.8905114739427  0.8002219036195  0.2476959265936 1.0
A      1  0.7795883177496  0.8007961592444  0.4139889420411 1.0
A      1  0.8899329352126  0.8005453865115  0.5813216151589 1.0
A      1  0.7791074161547  0.8003779466845  0.7478684816860 1.0
A      1  0.8901776180693  0.8002244145080  0.9147120718809 1.0
A      1  0.6129098411509  0.9000918974431  0.0801897619122 1.0
A      1  0.7239166594938  0.9000919127426  0.2471786435479 1.0
A      1  0.6126903837667  0.9000918712839  0.4134724058185 1.0
A      1  0.7236818763674  0.9000918851188  0.5808590185668 1.0
A      1  0.6126281023759  0.9000918671354  0.7478519786392 1.0
A      1  0.7236099052475  0.9000919199008  0.9143215813218 1.0
A      1  0.4460498530188  0.9995959037997  0.0803506755110 1.0
A      1  0.5573070192951  0.9994884190016  0.2464696973927 1.0
A      1  0.4461581249718  0.0005778251236  0.4142095506827 1.0
A      1  0.5568774845708  0.9981129602943  0.5807165863505 1.0
A      1  0.4458763602379  0.0000221073815  0.7471571686517 1.0
A      1  0.5568837223577  0.0001693164779  0.9139051173032 1.0
A      1  0.7794802070562  0.0000213816136  0.0809095295709 1.0
A      1  0.8905114571896  0.9999619191097  0.2476959186677 1.0
A      1  0.7795882945119  0.9993876404193  0.4139889325870 1.0
A      1  0.8899329059812  0.9996383765965  0.5813216051474 1.0
A      1  0.7791073902311  0.9998058654176  0.7478684715625 1.0
A      1  0.8901775983762  0.9999594193727  0.9147120631243 1.0
END
