TITL AB-20764-5019-258 0.0000000000 4458.8459578500 -1495.6492270512 0 0  183 (P1) n - 1
REM
REM Run started: at Fri Oct 6 15:28:51 BST 2023 in /home/michal/install/eddp/airss/examples/1.11
REM pp3 from code version ## 0.9.3 July 2022 commit b0220bf5cbf550a3b7
REM
REM
REM
REM Total runtime: s
REM
REM
REM ./AB.cell (a186c3e4acc5915692489c59fabd1559)
REM ## AIRSS Version 0.9.3 July 2022 commit b0220bf5cbf550a3b7
REM compiler GCC version 11.4.0
REM options -cpp -imultiarch x86_64-linux-gnu -mtune=generic -march=x86-64 -g -Og -fpre-include=/usr/include/finclude/math-vector-fortran.h
REM cmdline: airss.pl -pp3 max 100 -seed AB 
REM seed 1077737046 -98480718 1938145301 -1225839970 2033244921 -1082568563 -1040618300 907373004
REM
REM AB.pp (46f9ffe235eb1beff4ce53cde2d82919)
REM 
CELL 1.54180   16.99142   16.35000   16.05000   90.00000   90.00000   90.00000
LATT -1
SFAC A  B  
A      1  0.9436977961571  0.1003966256020  0.0823331949759 1.0
A      1  0.0540376151120  0.0997249824792  0.2488923567709 1.0
A      1  0.4403152623647  0.3863954638928  0.4103874499154 1.0
A      1  0.3843676261273  0.4920978678495  0.5787778691773 1.0
A      1  0.5679215521005  0.4082556128563  0.5519115147428 1.0
A      1  0.4866179444115  0.5680774315716  0.4135465477392 1.0
A      1  0.5601918700067  0.6128204160920  0.5875510395515 1.0
B      2  0.6391881090036  0.5486972444241  0.4615912236808 1.0
B      2  0.3563561546577  0.6073622400322  0.4763246902473 1.0
B      2  0.5067132670947  0.4912309930350  0.6660631324519 1.0
B      2  0.6125301089674  0.4531133124982  0.3837996142482 1.0
A      1  0.9435006179087  0.1010297705653  0.4158115487016 1.0
A      1  0.0548891789228  0.0999948205552  0.5827001360178 1.0
A      1  0.9438814974532  0.1010101682992  0.7494351349219 1.0
A      1  0.0546558798626  0.0999146406071  0.9158920218174 1.0
A      1  0.2770532805050  0.0994778239826  0.0821952215398 1.0
A      1  0.3871629632334  0.0964925137910  0.2486891796445 1.0
A      1  0.2764643504540  0.0985021061415  0.4157253427998 1.0
A      1  0.3883771900995  0.0993717371873  0.5823135739009 1.0
A      1  0.2772927027222  0.0991999185830  0.7492633523996 1.0
A      1  0.3882274555483  0.0989472837241  0.9159309059225 1.0
A      1  0.1098626189579  0.1997417330641  0.0824369680251 1.0
A      1  0.2200591204855  0.1978520158077  0.2487642227431 1.0
A      1  0.1088801299582  0.1996671629806  0.4157630645679 1.0
A      1  0.2213589920260  0.1986279435229  0.5824157532005 1.0
A      1  0.1099945242646  0.1995866951340  0.7491048999161 1.0
A      1  0.2208158894386  0.1987763477977  0.9157579291407 1.0
A      1  0.9437205596463  0.3001964300761  0.0829853319265 1.0
A      1  0.0536803042368  0.2994575778587  0.2490981578338 1.0
A      1  0.9415039622597  0.3009632877390  0.4160806856964 1.0
A      1  0.0546510268494  0.2995594777987  0.5825029518417 1.0
A      1  0.9448179570936  0.3004391978160  0.7494609653415 1.0
A      1  0.0555246486299  0.2998787069864  0.9158827755217 1.0
A      1  0.6108176076099  0.0995275643002  0.0812473016001 1.0
A      1  0.7210660805106  0.1004022598309  0.2487231864803 1.0
A      1  0.6106846365006  0.0970507016433  0.4150712240255 1.0
A      1  0.7220605140089  0.1016053809792  0.5820749992607 1.0
A      1  0.6111583357623  0.1032161049276  0.7484063548795 1.0
A      1  0.7218381063530  0.1010603907028  0.9154520669333 1.0
A      1  0.4438550044741  0.1979512229775  0.0814359014798 1.0
A      1  0.5533424988092  0.1971377934683  0.2458087652827 1.0
A      1  0.4432857821624  0.1933006852199  0.4143896299540 1.0
A      1  0.5558813564523  0.2033322753810  0.5802854161131 1.0
A      1  0.4437689028197  0.1977631186986  0.7490394967882 1.0
A      1  0.5551492499434  0.2015392789498  0.9138552095804 1.0
A      1  0.2757090113251  0.2988032627456  0.0818826871052 1.0
A      1  0.3860302101543  0.2955073994512  0.2459123415910 1.0
A      1  0.2747876180109  0.2958773777110  0.4154112812604 1.0
A      1  0.3897820706121  0.2979622442786  0.5829526297672 1.0
A      1  0.2747066736162  0.2977434031229  0.7489608598976 1.0
A      1  0.3866391136507  0.2970036117713  0.9188376466943 1.0
A      1  0.1100594584022  0.3998553124734  0.0820433738076 1.0
A      1  0.2204549770439  0.3972201766573  0.2474539329366 1.0
A      1  0.1082068030377  0.3985709788872  0.4153887247213 1.0
A      1  0.2201656368957  0.3978175985667  0.5817999232056 1.0
A      1  0.1108265672644  0.4001475218891  0.7491892827764 1.0
A      1  0.2222540906371  0.3996693297486  0.9152897005159 1.0
A      1  0.9441287903349  0.5001366718017  0.0834434700356 1.0
A      1  0.0547313139421  0.4993829996808  0.2492967611017 1.0
A      1  0.9429158895928  0.4999995864406  0.4165357200951 1.0
A      1  0.0565093116133  0.5003286544047  0.5824583511402 1.0
A      1  0.9458012640847  0.5010981854046  0.7497936887472 1.0
A      1  0.0563232061524  0.5002471295830  0.9159567691322 1.0
A      1  0.7772094151832  0.2002054751936  0.0816944047275 1.0
A      1  0.8877275048386  0.2001278326397  0.2487906418945 1.0
A      1  0.7777444234243  0.2004005381387  0.4153655379367 1.0
A      1  0.8887182053493  0.2005000043413  0.5828931459834 1.0
A      1  0.7769100386299  0.2019505896251  0.7491440081841 1.0
A      1  0.8883456418525  0.2007638091927  0.9157365391494 1.0
A      1  0.6105702482141  0.2989643408681  0.0808140311657 1.0
A      1  0.7216274963635  0.3000154190511  0.2474799758635 1.0
A      1  0.6111496690391  0.2910579241763  0.4075895252726 1.0
A      1  0.7236599976242  0.3008342202138  0.5822789767345 1.0
A      1  0.6088441695865  0.3066651671703  0.7440526309980 1.0
A      1  0.7215201320451  0.3015346793598  0.9149200317361 1.0
A      1  0.4430617946290  0.3987003927745  0.0816541355833 1.0
A      1  0.5527800420435  0.3976004566321  0.2448508313348 1.0
A      1  0.4370009280711  0.3921886801970  0.7577474412009 1.0
A      1  0.5551878724209  0.4010480265901  0.9160337776268 1.0
A      1  0.2769705060886  0.4990857925389  0.0829243423221 1.0
A      1  0.3887399393882  0.4978124483818  0.2498206505977 1.0
A      1  0.2735332260334  0.4935502156238  0.4111489148933 1.0
A      1  0.2777026166657  0.5002106639760  0.7481905971180 1.0
A      1  0.3881940481923  0.5002234233737  0.9177623815293 1.0
A      1  0.1106116998942  0.6000568641613  0.0825810072877 1.0
A      1  0.2212087444151  0.5986282290519  0.2483606816707 1.0
A      1  0.1093795177907  0.5993178001933  0.4155886869496 1.0
A      1  0.2244533112459  0.6007024208184  0.5798225859378 1.0
A      1  0.1121410376047  0.6004786842171  0.7485776840802 1.0
A      1  0.2225115867290  0.5998934892507  0.9164388655131 1.0
A      1  0.9444824731011  0.7006040703952  0.0833214921137 1.0
A      1  0.0556041365693  0.7000806913838  0.2493977686172 1.0
A      1  0.9446054140848  0.7010771118425  0.4162045256249 1.0
A      1  0.0573448182259  0.7007596977583  0.5822947493879 1.0
A      1  0.9467307856278  0.7021067977331  0.7497251203380 1.0
A      1  0.0564605392681  0.7002970414511  0.9159126659894 1.0
A      1  0.7777936460156  0.3999154525815  0.0840558151426 1.0
A      1  0.8870011651081  0.4005198174163  0.2508011135243 1.0
A      1  0.7704282199180  0.4033259381310  0.4184108495961 1.0
A      1  0.8896555857126  0.4008736953524  0.5828278454672 1.0
A      1  0.7808737240183  0.4005654536269  0.7510529032968 1.0
A      1  0.8902137235779  0.4003079895493  0.9169488275187 1.0
A      1  0.6116546778878  0.4987882683487  0.0816635131498 1.0
A      1  0.7199006579396  0.5000060667959  0.2529957648347 1.0
A      1  0.7271745105337  0.5038639949639  0.5891739181299 1.0
A      1  0.6226031321106  0.5052943050792  0.7595544328559 1.0
A      1  0.7263688721931  0.5012646560115  0.9207001968511 1.0
A      1  0.4440532350833  0.5991242289317  0.0836080145303 1.0
A      1  0.5601711291877  0.6008628279549  0.2425093902148 1.0
A      1  0.4436559256806  0.6031352560060  0.7557895913967 1.0
A      1  0.5560568736444  0.6016929637235  0.9189840165203 1.0
A      1  0.2777460181201  0.6994943958395  0.0839072872885 1.0
A      1  0.3897580698155  0.6951988269692  0.2538049839532 1.0
A      1  0.2669844092069  0.7080687604232  0.4094798947769 1.0
A      1  0.3915924920916  0.7048552903203  0.5927845476563 1.0
A      1  0.2770399381595  0.7007546128313  0.7513090348534 1.0
A      1  0.3885827339123  0.7013258685081  0.9188752218204 1.0
A      1  0.1103411184488  0.8002701906445  0.0819134631929 1.0
A      1  0.2203734112562  0.8013552448743  0.2458905291355 1.0
A      1  0.1069919342885  0.8032488495193  0.4155254112250 1.0
A      1  0.2226220658841  0.8004448490022  0.5825857486657 1.0
A      1  0.1117491768935  0.8011643642624  0.7494151973956 1.0
A      1  0.2221590404868  0.8002589264871  0.9168216535144 1.0
A      1  0.9441423904213  0.9008340016566  0.0824631034666 1.0
A      1  0.0543678649847  0.9007230775350  0.2485626536890 1.0
A      1  0.9436496290183  0.9022655472380  0.4160170134131 1.0
A      1  0.0556684827891  0.9008941880044  0.5830619139539 1.0
A      1  0.9448789882444  0.9017383309425  0.7496329595673 1.0
A      1  0.0553560948656  0.9003100103868  0.9158790913914 1.0
A      1  0.7779754956527  0.6005129878381  0.0853434521704 1.0
A      1  0.8890462558782  0.6002206787553  0.2500489237864 1.0
A      1  0.7797783290518  0.6021617858131  0.4169258292715 1.0
A      1  0.8917613506724  0.6018612018200  0.5834365703711 1.0
A      1  0.7827003895680  0.6044734066983  0.7520435617131 1.0
A      1  0.8909956303915  0.6009965531054  0.9176214492569 1.0
A      1  0.6123774353868  0.7015792812496  0.0821553738469 1.0
A      1  0.7240072625211  0.7016304098936  0.2496770296064 1.0
A      1  0.6161176464674  0.7052400085152  0.4159582404202 1.0
A      1  0.7258285285276  0.7034584960916  0.5841404302245 1.0
A      1  0.6133149135399  0.7040767651350  0.7530638569596 1.0
A      1  0.7237246866038  0.7009628715162  0.9176271436748 1.0
A      1  0.4443276368079  0.7988929408497  0.0850035350554 1.0
A      1  0.5552581407917  0.7997076549377  0.2503443887452 1.0
A      1  0.4431539119669  0.7913555598972  0.4196729638563 1.0
A      1  0.5571476668029  0.8060219246382  0.5846536930106 1.0
A      1  0.4461180199742  0.8027501381038  0.7533827189263 1.0
A      1  0.5558925279267  0.8017070787628  0.9180411052753 1.0
A      1  0.2777303087014  0.9001196498773  0.0824394504735 1.0
A      1  0.3880861238835  0.8965321191030  0.2508742771682 1.0
A      1  0.2767242793420  0.9014082405752  0.4159861279874 1.0
A      1  0.3888201508260  0.9011246831688  0.5833588780587 1.0
A      1  0.2782111524566  0.9000801090872  0.7498275433270 1.0
A      1  0.3887096518290  0.9004524688205  0.9174261444473 1.0
A      1  0.1106148196233  0.0001500453941  0.0822974617692 1.0
A      1  0.2209423618145  0.9992527632727  0.2488295379554 1.0
A      1  0.1100198003678  0.0010690067808  0.4157817722325 1.0
A      1  0.2216192667284  0.9997292292938  0.5829463677733 1.0
A      1  0.1109886603406  0.0005320958652  0.7494924127128 1.0
A      1  0.2215953133594  0.9996288558718  0.9159226121183 1.0
A      1  0.7784182468541  0.8011409392300  0.0831490028985 1.0
A      1  0.8894211177933  0.8007852132911  0.2495618355684 1.0
A      1  0.7797513092365  0.8026198270621  0.4165349252251 1.0
A      1  0.8906928366177  0.8016635772435  0.5831434428088 1.0
A      1  0.7792812782047  0.8030757294400  0.7502442997176 1.0
A      1  0.8895973781126  0.8006821869550  0.9163720016733 1.0
A      1  0.6111778174589  0.9003812205483  0.0832808199653 1.0
A      1  0.7218937207488  0.9005984917748  0.2497289793954 1.0
A      1  0.6108173504639  0.9004633633755  0.4163483485669 1.0
A      1  0.7231664703124  0.9024048850911  0.5829223824490 1.0
A      1  0.6123407644528  0.9032133553650  0.7504675784940 1.0
A      1  0.7224385764238  0.9010021366645  0.9166425799243 1.0
A      1  0.4441948669881  0.9987263585970  0.0831113242471 1.0
A      1  0.5545952052581  0.9988116754991  0.2489222344409 1.0
A      1  0.4439903479505  0.9956384174660  0.4160245171935 1.0
A      1  0.5555285602248  0.0030308926447  0.5831100835093 1.0
A      1  0.4447321188081  0.0003212736118  0.7496435893209 1.0
A      1  0.5553790335901  0.0012519159115  0.9158694084994 1.0
A      1  0.7774218707495  0.0006735581568  0.0826036287983 1.0
A      1  0.8878468142931  0.0005877957377  0.2490383184471 1.0
A      1  0.7775342852641  0.0012482268450  0.4157820229721 1.0
A      1  0.8888155287732  0.0011777501892  0.5827754461999 1.0
A      1  0.7778976432232  0.0023282956515  0.7493794394058 1.0
A      1  0.8884522843211  0.0006483826423  0.9160048269042 1.0
END
