TITL AB-20764-5019-383 0.0000000000 4458.8459578500 -1501.1773896934 0 0  183 (P1) n - 1
REM
REM Run started: at Fri Oct 6 15:33:43 BST 2023 in /home/michal/install/eddp/airss/examples/1.11
REM pp3 from code version ## 0.9.3 July 2022 commit b0220bf5cbf550a3b7
REM
REM
REM
REM Total runtime: s
REM
REM
REM ./AB.cell (a186c3e4acc5915692489c59fabd1559)
REM ## AIRSS Version 0.9.3 July 2022 commit b0220bf5cbf550a3b7
REM compiler GCC version 11.4.0
REM options -cpp -imultiarch x86_64-linux-gnu -mtune=generic -march=x86-64 -g -Og -fpre-include=/usr/include/finclude/math-vector-fortran.h
REM cmdline: airss.pl -pp3 max 100 -seed AB 
REM seed -74268089 -1293876707 2046549101 1592959900 1093432083 1265543631 -1498839810 394859926
REM
REM AB.pp (46f9ffe235eb1beff4ce53cde2d82919)
REM 
CELL 1.54180   16.99142   16.35000   16.05000   90.00000   90.00000   90.00000
LATT -1
SFAC A  B  
A      1  0.9448350556632  0.0979365900135  0.0854081821050 1.0
A      1  0.0556660952472  0.0987029426992  0.2523196788388 1.0
A      1  0.5725139803038  0.4748117855132  0.4260124641481 1.0
A      1  0.4388837557333  0.6045631521979  0.4178455989775 1.0
A      1  0.3925044035984  0.4934469101442  0.5802744906268 1.0
A      1  0.5552970938448  0.5988404107629  0.5853819355659 1.0
A      1  0.5608406505200  0.3975905934826  0.6024543591530 1.0
B      2  0.4134595209433  0.4366638774152  0.4192260235116 1.0
B      2  0.4782344153194  0.3455698864809  0.3568256035444 1.0
B      2  0.4785365846436  0.3451869908242  0.4820454753533 1.0
B      2  0.6594466015892  0.5769077013098  0.3526003000220 1.0
A      1  0.9455038351292  0.0992184774321  0.4188987487274 1.0
A      1  0.0553945467718  0.0992106697334  0.5855567691904 1.0
A      1  0.9446445895695  0.0985674548195  0.7522353651211 1.0
A      1  0.0555702341012  0.0984530300475  0.9189131145447 1.0
A      1  0.2777840384631  0.0988142427770  0.0859525141721 1.0
A      1  0.3887921515277  0.0979056143156  0.2520624574698 1.0
A      1  0.2777951035917  0.1007912645432  0.4191508172732 1.0
A      1  0.3885090401704  0.0980816695162  0.5863529807372 1.0
A      1  0.2776129396203  0.0989939941194  0.7522742354065 1.0
A      1  0.3883440951315  0.0977792190702  0.9191984535829 1.0
A      1  0.1109054573535  0.1983030004245  0.0855872219109 1.0
A      1  0.2213594055571  0.1987145296753  0.2528210007431 1.0
A      1  0.1124014007572  0.2004844673925  0.4190198531513 1.0
A      1  0.2209425879511  0.1991158717732  0.5853347054952 1.0
A      1  0.1104911791131  0.1987191631172  0.7521544312952 1.0
A      1  0.2217612994934  0.1978817968547  0.9190902030508 1.0
A      1  0.9452075208252  0.2980183484766  0.0848860070109 1.0
A      1  0.0559968197438  0.2985807402405  0.2520854210394 1.0
A      1  0.9440049769035  0.2994400628937  0.4187950710678 1.0
A      1  0.0550113542371  0.2995246831705  0.5855531304531 1.0
A      1  0.9443195523892  0.2990020964274  0.7516174938190 1.0
A      1  0.0561667131383  0.2986708868026  0.9185951767816 1.0
A      1  0.6115694774255  0.0979984608004  0.0860893125537 1.0
A      1  0.7219804193371  0.0983323300899  0.2524970695382 1.0
A      1  0.6113340583821  0.0968456811124  0.4189569517342 1.0
A      1  0.7219455069777  0.0992590490655  0.5853678845605 1.0
A      1  0.6115003473238  0.0978385109956  0.7523839979863 1.0
A      1  0.7224870025778  0.0983517885120  0.9188475331773 1.0
A      1  0.4450413749653  0.1974523293833  0.0839790567728 1.0
A      1  0.5546838583379  0.2005468527993  0.2515319820995 1.0
A      1  0.4446954557403  0.1969377226567  0.4191557453003 1.0
A      1  0.5546011111766  0.1998241366573  0.5864728297230 1.0
A      1  0.4449949377348  0.1975019995944  0.7546884819945 1.0
A      1  0.5557972662992  0.1972965430410  0.9196935269235 1.0
A      1  0.2761590413453  0.2984824124143  0.0833886012439 1.0
A      1  0.3848699514317  0.2950077132335  0.2445123719439 1.0
A      1  0.2863895482135  0.3044766837657  0.4191285992203 1.0
A      1  0.3846209285621  0.2951364367417  0.5941376364994 1.0
A      1  0.2758930242495  0.2984258285520  0.7550848171596 1.0
A      1  0.3887907405581  0.2979885038407  0.9196978020025 1.0
A      1  0.1108861418218  0.3988356718414  0.0854753424132 1.0
A      1  0.2218590766628  0.3985807626112  0.2521539056501 1.0
A      1  0.1119686615633  0.3982977686234  0.4188894660017 1.0
A      1  0.2220962167278  0.3989068489491  0.5858856647735 1.0
A      1  0.1109954202249  0.3990679480712  0.7523132212792 1.0
A      1  0.2222116873450  0.3994262659987  0.9190081113521 1.0
A      1  0.9446382411618  0.4986810763815  0.0854641826038 1.0
A      1  0.0565818705021  0.4991536628115  0.2522352483391 1.0
A      1  0.9463605708721  0.4981860407229  0.4188478115939 1.0
A      1  0.0565361409520  0.4991555669762  0.5855321020348 1.0
A      1  0.9449851827227  0.4987210466898  0.7522079191509 1.0
A      1  0.0559572232996  0.4989763894932  0.9189511354011 1.0
A      1  0.7788530116926  0.1971070731348  0.0849216101442 1.0
A      1  0.8899874996453  0.1978884022911  0.2516448608844 1.0
A      1  0.7803501015036  0.1980802987597  0.4186086184031 1.0
A      1  0.8894002731207  0.1989203489665  0.5856165228027 1.0
A      1  0.7786967146217  0.1981332950273  0.7519966141355 1.0
A      1  0.8897076196308  0.1984331726108  0.9185382287684 1.0
A      1  0.6129147329025  0.2971884819424  0.0826567999168 1.0
A      1  0.7246939034871  0.2966224823423  0.2505737753328 1.0
A      1  0.6158807722202  0.2906828537330  0.4184582103266 1.0
A      1  0.7235718720119  0.2985269166813  0.5854292930931 1.0
A      1  0.6128904050526  0.2957459130839  0.7570674787746 1.0
A      1  0.7240291016993  0.2981228166590  0.9182600049815 1.0
A      1  0.4450124291613  0.3985424528340  0.0843772561743 1.0
A      1  0.5640261355760  0.4015659253682  0.2412040839230 1.0
A      1  0.4435437661921  0.3982082534961  0.7557775140601 1.0
A      1  0.5562026034386  0.3984713647582  0.9191100292752 1.0
A      1  0.2782631260772  0.4982604541594  0.0867815787418 1.0
A      1  0.3909735594933  0.4928423226646  0.2573092527140 1.0
A      1  0.2731943893256  0.5024376347408  0.4190421665536 1.0
A      1  0.2784701745738  0.4985886869906  0.7510770978740 1.0
A      1  0.3886728978364  0.4988028831883  0.9190229852931 1.0
A      1  0.1114150450154  0.5987062449119  0.0855301420249 1.0
A      1  0.2229427492103  0.5989287834360  0.2518410255367 1.0
A      1  0.1102759708322  0.6002580572750  0.4190549362804 1.0
A      1  0.2234275083498  0.5990140451311  0.5860742274718 1.0
A      1  0.1115111164477  0.5989203539734  0.7523832133740 1.0
A      1  0.2225331548691  0.5985414679292  0.9188894732521 1.0
A      1  0.9451882047746  0.6989819573010  0.0856719984550 1.0
A      1  0.0563972732277  0.6994231292468  0.2520471240228 1.0
A      1  0.9475060667055  0.7014005036495  0.4194563305678 1.0
A      1  0.0568635383574  0.6996527762473  0.5862635650641 1.0
A      1  0.9452205996244  0.6995856669710  0.7529408378715 1.0
A      1  0.0560927294021  0.6989105138090  0.9191044539264 1.0
A      1  0.7796644923888  0.3966060921067  0.0819612014847 1.0
A      1  0.8914740313972  0.3975486996305  0.2518140021038 1.0
A      1  0.7734968232091  0.4028816505923  0.4163172845525 1.0
A      1  0.8882045612315  0.3999257249135  0.5843077264090 1.0
A      1  0.7776125664490  0.3992328601122  0.7508901895607 1.0
A      1  0.8902511319172  0.3986519178994  0.9176464674192 1.0
A      1  0.6129745413213  0.5009229465743  0.0808006964215 1.0
A      1  0.7294780303929  0.4947790104133  0.2425986132673 1.0
A      1  0.7210409017455  0.5005787325630  0.5829738609712 1.0
A      1  0.6126941851728  0.5013396533953  0.7563786083966 1.0
A      1  0.7241682607415  0.4988072411738  0.9181279584251 1.0
A      1  0.4428842662811  0.5980634203380  0.0847190099179 1.0
A      1  0.5498042730184  0.5996761504654  0.2474974555807 1.0
A      1  0.4442469893821  0.5977719152147  0.7509658381352 1.0
A      1  0.5548406244841  0.5999130656231  0.9186975041084 1.0
A      1  0.2772038527891  0.6990044878933  0.0849474586545 1.0
A      1  0.3867644146703  0.6994159211028  0.2511965237450 1.0
A      1  0.2753482185293  0.7016783858317  0.4190257342189 1.0
A      1  0.3885661152283  0.6985477017952  0.5861086290920 1.0
A      1  0.2776890329323  0.6989521925861  0.7525542358448 1.0
A      1  0.3886996291706  0.6986876007456  0.9185388058211 1.0
A      1  0.1111779911126  0.7990832354349  0.0854831311461 1.0
A      1  0.2217291558891  0.7997709582869  0.2519434279880 1.0
A      1  0.1112733326656  0.8009591566410  0.4191316033914 1.0
A      1  0.2223269911658  0.7996423648372  0.5861374753294 1.0
A      1  0.1113715228492  0.7992762318993  0.7526052239606 1.0
A      1  0.2222262225270  0.7988449539405  0.9189298819083 1.0
A      1  0.9444792234569  0.8985146455191  0.0858465637301 1.0
A      1  0.0552310328516  0.8991979214134  0.2523622979943 1.0
A      1  0.9445329596799  0.8998857763708  0.4191049062315 1.0
A      1  0.0554670171902  0.8994612187613  0.5858051501778 1.0
A      1  0.9446141194994  0.8990077500215  0.7524273089463 1.0
A      1  0.0554485131817  0.8987664680240  0.9190632147232 1.0
A      1  0.7793748425683  0.6001076206378  0.0837188887929 1.0
A      1  0.8905633115282  0.5992978749745  0.2525845879842 1.0
A      1  0.7879640022175  0.6025137057170  0.4243208842414 1.0
A      1  0.8915615676866  0.5995683510800  0.5880832806494 1.0
A      1  0.7786141136536  0.5993786818663  0.7516824146653 1.0
A      1  0.8898584573188  0.5990155083152  0.9183941404440 1.0
A      1  0.6113527727195  0.6993976892745  0.0853759181697 1.0
A      1  0.7213708120076  0.6966672227361  0.2538986544161 1.0
A      1  0.6072935839703  0.7043978418002  0.4233355252165 1.0
A      1  0.7221517591192  0.7000123024814  0.5864877986339 1.0
A      1  0.6109653405133  0.6994962516620  0.7522802697236 1.0
A      1  0.7222168205998  0.6987901936670  0.9184304570528 1.0
A      1  0.4443599023158  0.7982883410664  0.0855614026630 1.0
A      1  0.5548891884443  0.7987554183897  0.2529053283794 1.0
A      1  0.4423266589153  0.8013920753138  0.4192510102962 1.0
A      1  0.5543076158044  0.8004006658767  0.5875194240042 1.0
A      1  0.4440440003381  0.7985304083230  0.7528727361534 1.0
A      1  0.5554727011791  0.7990541222071  0.9191205640245 1.0
A      1  0.2778163929687  0.8988979511950  0.0855774261128 1.0
A      1  0.3885022348429  0.8989528153801  0.2520406276967 1.0
A      1  0.2771277567781  0.9008094523662  0.4190572769575 1.0
A      1  0.3882242085360  0.8990998593286  0.5862785123427 1.0
A      1  0.2777150118025  0.8991287383821  0.7526400617762 1.0
A      1  0.3887619742138  0.8984141477338  0.9192168670634 1.0
A      1  0.1112604397345  0.9986154829544  0.0856778270826 1.0
A      1  0.2220346473147  0.9992044930191  0.2523621146494 1.0
A      1  0.1112788460995  0.0001674516813  0.4190390710929 1.0
A      1  0.2218778302019  0.9994057007335  0.5857836457212 1.0
A      1  0.1111610242576  0.9989700795027  0.7523761032879 1.0
A      1  0.2220358269212  0.9984925013418  0.9190972474119 1.0
A      1  0.7777967179985  0.7985395307268  0.0863240294881 1.0
A      1  0.8885914503670  0.7985734623502  0.2527053835028 1.0
A      1  0.7776416720952  0.7996382419498  0.4192272163501 1.0
A      1  0.8890660531842  0.7992112118496  0.5857695424957 1.0
A      1  0.7781269387934  0.7991784252451  0.7525629562582 1.0
A      1  0.8889101661746  0.7987510535002  0.9193788291662 1.0
A      1  0.6110217410347  0.8985396364187  0.0860446963037 1.0
A      1  0.7217418412476  0.8981416675545  0.2527026701394 1.0
A      1  0.6106530113436  0.9000543231368  0.4194693456620 1.0
A      1  0.7218780316721  0.8993644910726  0.5858470043830 1.0
A      1  0.6112807793908  0.8988877538967  0.7529157458512 1.0
A      1  0.7222871601703  0.8985722808235  0.9193637991250 1.0
A      1  0.4445054446039  0.9982004409093  0.0855851717835 1.0
A      1  0.5552093217723  0.9990068157796  0.2523300568088 1.0
A      1  0.4438625617653  0.9990951544092  0.4192442278329 1.0
A      1  0.5551141794244  0.9994739441804  0.5861443506999 1.0
A      1  0.4444593115116  0.9982658691686  0.7528228972158 1.0
A      1  0.5555543424142  0.9984270324926  0.9193476021487 1.0
A      1  0.7778835906601  0.9980278789852  0.0858864218622 1.0
A      1  0.8886527064483  0.9985893471674  0.2523585314391 1.0
A      1  0.7782109140580  0.9988781604162  0.4190476992674 1.0
A      1  0.8887285847884  0.9991967660296  0.5856685667790 1.0
A      1  0.7780053264295  0.9986493392712  0.7522984511818 1.0
A      1  0.8888774540418  0.9985577813360  0.9190221429571 1.0
END
