TITL AB-20764-5019-533 0.0000000000 4458.8459578500 -1483.5895358487 0 0  183 (P1) n - 1
REM
REM Run started: at Fri Oct 6 15:39:12 BST 2023 in /home/michal/install/eddp/airss/examples/1.11
REM pp3 from code version ## 0.9.3 July 2022 commit b0220bf5cbf550a3b7
REM
REM
REM
REM Total runtime: s
REM
REM
REM ./AB.cell (a186c3e4acc5915692489c59fabd1559)
REM ## AIRSS Version 0.9.3 July 2022 commit b0220bf5cbf550a3b7
REM compiler GCC version 11.4.0
REM options -cpp -imultiarch x86_64-linux-gnu -mtune=generic -march=x86-64 -g -Og -fpre-include=/usr/include/finclude/math-vector-fortran.h
REM cmdline: airss.pl -pp3 max 100 -seed AB 
REM seed 719060149 1556014241 472014095 -1809550291 2093553472 682153996 -1991127991 -1758076527
REM
REM AB.pp (46f9ffe235eb1beff4ce53cde2d82919)
REM 
CELL 1.54180   16.99142   16.35000   16.05000   90.00000   90.00000   90.00000
LATT -1
SFAC A  B  
A      1  0.9462154863756  0.1002173668137  0.0827886260181 1.0
A      1  0.0564869052331  0.0992770031014  0.2493536606578 1.0
A      1  0.3976167705018  0.5223191528907  0.5472838912819 1.0
A      1  0.5636009130726  0.6067501155272  0.5762272885502 1.0
A      1  0.4561170714807  0.6112103424639  0.3981885119855 1.0
A      1  0.5605355876872  0.3964594676512  0.5753545444502 1.0
A      1  0.4532705572501  0.4010192273882  0.4071063922779 1.0
B      2  0.4897341273907  0.5003321001619  0.6661646576717 1.0
B      2  0.3327495059889  0.3931005113563  0.5054000104039 1.0
B      2  0.3388431660309  0.5925505829043  0.6694981234142 1.0
B      2  0.3452885753521  0.4198131804141  0.6518928222051 1.0
A      1  0.9461102126797  0.0998972228432  0.4162992288199 1.0
A      1  0.0578672566623  0.0999482342368  0.5830285384421 1.0
A      1  0.9463906642306  0.1004541839589  0.7495805470162 1.0
A      1  0.0566723770955  0.1000708185077  0.9161172212001 1.0
A      1  0.2797110555460  0.0996738863741  0.0827024395137 1.0
A      1  0.3901476728608  0.1010858973212  0.2500331761633 1.0
A      1  0.2793708986145  0.0979288425009  0.4163360123280 1.0
A      1  0.3912831266982  0.0967875520178  0.5833087808402 1.0
A      1  0.2797156877912  0.1008583449656  0.7492786960743 1.0
A      1  0.3902463423569  0.0991680481817  0.9178520207623 1.0
A      1  0.1119499043639  0.1999700589589  0.0824606863736 1.0
A      1  0.2218415972705  0.1970373171012  0.2466047840838 1.0
A      1  0.1103947740189  0.1986502913316  0.4161678879419 1.0
A      1  0.2251113213266  0.2025046194641  0.5815527839228 1.0
A      1  0.1125423232306  0.2004119640297  0.7491592274892 1.0
A      1  0.2228242087322  0.1988677456752  0.9165472067526 1.0
A      1  0.9454907808857  0.2999449050038  0.0834104834373 1.0
A      1  0.0566542536226  0.2992404461739  0.2498479962434 1.0
A      1  0.9441245744512  0.3003049036181  0.4160519629963 1.0
A      1  0.0524086550412  0.2980425215782  0.5830049751301 1.0
A      1  0.9441044924457  0.2994407297609  0.7500131295085 1.0
A      1  0.0558129796857  0.2989715998740  0.9173591354494 1.0
A      1  0.6134766365210  0.1003151608226  0.0831045041462 1.0
A      1  0.7242020084365  0.1002854414723  0.2493435756601 1.0
A      1  0.6138314800640  0.1001916577580  0.4155710298745 1.0
A      1  0.7259446797722  0.0989508445666  0.5827927458891 1.0
A      1  0.6144813028087  0.0994819600819  0.7504764490802 1.0
A      1  0.7241067140494  0.1002255015365  0.9166171601725 1.0
A      1  0.4469858783037  0.1994577012097  0.0843375413725 1.0
A      1  0.5574057849824  0.2004153343544  0.2495793724068 1.0
A      1  0.4462405142304  0.2009911188025  0.4165736961211 1.0
A      1  0.5625266230452  0.1963739803676  0.5830241811903 1.0
A      1  0.4481212023032  0.1951489174599  0.7546234297671 1.0
A      1  0.5579996626709  0.2006855772934  0.9174904864359 1.0
A      1  0.2788110526801  0.2989358219243  0.0848623462130 1.0
A      1  0.3906603650218  0.3004235141595  0.2481253992711 1.0
A      1  0.2741911286258  0.2925422506998  0.4069236691834 1.0
A      1  0.4010249993216  0.2870180369781  0.5905371255807 1.0
A      1  0.2787428886355  0.2994895232151  0.7508729740588 1.0
A      1  0.3886197153203  0.2971090964677  0.9224173481351 1.0
A      1  0.1106612804347  0.4001132399362  0.0839082655627 1.0
A      1  0.2222449491876  0.3992659218272  0.2466971855124 1.0
A      1  0.1099939894756  0.3993929275565  0.4160332674374 1.0
A      1  0.2076110078532  0.4015029716574  0.5880985955815 1.0
A      1  0.1069196326406  0.3988444801909  0.7533625804017 1.0
A      1  0.2216704797226  0.3966549788608  0.9224475886408 1.0
A      1  0.9453889080126  0.5005164210805  0.0831594320582 1.0
A      1  0.0567508030266  0.5001678850563  0.2496874461408 1.0
A      1  0.9437704632750  0.5003085879182  0.4158012761737 1.0
A      1  0.0508107111667  0.5021225741319  0.5829448801419 1.0
A      1  0.9444505925307  0.5008909623873  0.7503743818556 1.0
A      1  0.0574020022137  0.5009684373265  0.9171150080140 1.0
A      1  0.7798882853924  0.1999510745859  0.0827468721586 1.0
A      1  0.8908229685330  0.1996041740763  0.2495082425123 1.0
A      1  0.7799923265765  0.1998122414425  0.4159687807709 1.0
A      1  0.8900658561614  0.1989491134951  0.5829043330142 1.0
A      1  0.7794404531273  0.1997166854245  0.7498562556160 1.0
A      1  0.8902656875861  0.1998355381376  0.9164994698161 1.0
A      1  0.6138766537365  0.2993566036982  0.0835729808555 1.0
A      1  0.7255211365214  0.2995551159980  0.2487829283038 1.0
A      1  0.6149202419391  0.2986278289098  0.4137160811085 1.0
A      1  0.7256123627658  0.2989929506643  0.5829839891028 1.0
A      1  0.6137824909688  0.2999329863161  0.7489193587331 1.0
A      1  0.7248377980857  0.3002040700432  0.9162988584124 1.0
A      1  0.4468920125335  0.4003132164892  0.0838185066029 1.0
A      1  0.5606495181554  0.4014326880119  0.2472980039365 1.0
A      1  0.4477507926413  0.3903217384068  0.7653893097123 1.0
A      1  0.5601335856232  0.4003564321751  0.9203909809696 1.0
A      1  0.2786875919023  0.5006252994188  0.0835221580058 1.0
A      1  0.3904695998517  0.5018582622364  0.2465774486568 1.0
A      1  0.2728925368068  0.5013096334378  0.4062287438442 1.0
A      1  0.2689907937215  0.4964269823028  0.7654498230754 1.0
A      1  0.3905927826542  0.5007731083982  0.9203266735828 1.0
A      1  0.1110872718566  0.6005984553436  0.0835900059920 1.0
A      1  0.2225331653011  0.6025901858198  0.2470131660079 1.0
A      1  0.1095561143593  0.6008771291651  0.4142955585825 1.0
A      1  0.2173095430147  0.5995397945216  0.5775163901294 1.0
A      1  0.1112456213495  0.6014208075928  0.7492249799244 1.0
A      1  0.2224031037826  0.6029580671845  0.9207226374005 1.0
A      1  0.9458897714202  0.7009669683857  0.0828951810304 1.0
A      1  0.0565810264953  0.7012344320251  0.2493962668478 1.0
A      1  0.9451416999139  0.7006428663527  0.4161455579247 1.0
A      1  0.0557069964420  0.7016721362107  0.5827678806942 1.0
A      1  0.9459027624449  0.7010088401619  0.7496121266070 1.0
A      1  0.0570095792732  0.7014331440934  0.9163972807426 1.0
A      1  0.7800406984789  0.4000417858104  0.0831732958736 1.0
A      1  0.8908818313790  0.4000501307592  0.2497014128220 1.0
A      1  0.7769928974581  0.4011154013170  0.4163747935539 1.0
A      1  0.8887295798432  0.4002586165818  0.5829740409549 1.0
A      1  0.7797536067825  0.4000358614090  0.7498895651602 1.0
A      1  0.8914502041703  0.4001718451251  0.9166573491755 1.0
A      1  0.6152468917907  0.4999454189947  0.0828359965186 1.0
A      1  0.7256252452771  0.5005085889454  0.2503827465433 1.0
A      1  0.7230412802669  0.5006209112950  0.5829207213755 1.0
A      1  0.6166198471531  0.5006387189371  0.7536533346647 1.0
A      1  0.7269884713758  0.5005030961361  0.9172499576761 1.0
A      1  0.4471107074001  0.6016114008758  0.0830837404120 1.0
A      1  0.5630538726422  0.6013242698104  0.2433585672811 1.0
A      1  0.4525390187989  0.6112306721233  0.7669005942281 1.0
A      1  0.5617838148410  0.6007635082872  0.9216665770984 1.0
A      1  0.2781737909833  0.7018847283519  0.0836740574029 1.0
A      1  0.3895244847492  0.7045008554887  0.2444505624599 1.0
A      1  0.2821839318136  0.6994522512680  0.4153696705761 1.0
A      1  0.3945098682659  0.7104686340247  0.5803734796702 1.0
A      1  0.2766456552694  0.7058668417365  0.7555593554751 1.0
A      1  0.3887507092971  0.7041382572053  0.9220156033364 1.0
A      1  0.1122264454655  0.8008670372376  0.0835375083236 1.0
A      1  0.2233335205020  0.8014044545974  0.2502509176012 1.0
A      1  0.1135802207984  0.7996662232597  0.4166137138974 1.0
A      1  0.2242408013557  0.7997128514246  0.5837151856051 1.0
A      1  0.1117318529454  0.8017734003210  0.7499194648573 1.0
A      1  0.2223130304170  0.8032647335893  0.9182822775845 1.0
A      1  0.9465378570660  0.9009730294443  0.0829238496984 1.0
A      1  0.0573068715886  0.9004921141426  0.2497332256969 1.0
A      1  0.9473891185390  0.9004920404135  0.4161699894871 1.0
A      1  0.0581604728981  0.9006468765961  0.5829464758237 1.0
A      1  0.9466686325015  0.9011360951008  0.7496904285730 1.0
A      1  0.0567438414796  0.9012585993198  0.9165715343880 1.0
A      1  0.7799393910084  0.6010494875594  0.0830412487449 1.0
A      1  0.8911502632530  0.6007667936190  0.2496055510280 1.0
A      1  0.7776237939090  0.6002934447671  0.4161978790919 1.0
A      1  0.8889348707442  0.6014358988823  0.5827185387086 1.0
A      1  0.7802776183822  0.6011858088332  0.7496999902077 1.0
A      1  0.8915659411517  0.6010731014547  0.9166129103583 1.0
A      1  0.6147601031628  0.7031618046029  0.0821690345319 1.0
A      1  0.7266834458860  0.7021336395092  0.2482073228655 1.0
A      1  0.6176134436340  0.7050161874645  0.4132805343588 1.0
A      1  0.7269013993646  0.7031949987371  0.5827439184284 1.0
A      1  0.6159645972668  0.7022195569829  0.7488054023059 1.0
A      1  0.7256938629589  0.7012838930701  0.9160050955774 1.0
A      1  0.4475981772858  0.8028194045794  0.0827947498597 1.0
A      1  0.5579653643718  0.8014165007531  0.2485125289948 1.0
A      1  0.4482711055404  0.8051761093758  0.4142095118740 1.0
A      1  0.5600065129056  0.8036435519065  0.5822676978425 1.0
A      1  0.4465682557297  0.8039011377972  0.7499841433064 1.0
A      1  0.5574871930862  0.8004735857738  0.9154632602468 1.0
A      1  0.2797917977286  0.9008287673229  0.0835069434960 1.0
A      1  0.3904858172794  0.9023378967356  0.2493559588695 1.0
A      1  0.2799878557272  0.8995836098905  0.4168637482088 1.0
A      1  0.3909025556353  0.9029992192910  0.5827384780221 1.0
A      1  0.2793174652031  0.9023655698144  0.7497315616007 1.0
A      1  0.3902343215490  0.9014758297972  0.9167685282019 1.0
A      1  0.1130424577562  0.0004761267332  0.0829742880208 1.0
A      1  0.2236566394895  0.9996814553570  0.2497136599543 1.0
A      1  0.1130495635395  0.9996155017945  0.4161677367219 1.0
A      1  0.2236055932300  0.0007070118503  0.5830743556252 1.0
A      1  0.1128808076374  0.0010076499455  0.7498262458747 1.0
A      1  0.2234410925197  0.0008981091023  0.9163452302748 1.0
A      1  0.7805956514755  0.8016363811234  0.0823260051176 1.0
A      1  0.8914401672840  0.8012649055577  0.2491966405054 1.0
A      1  0.7816441877010  0.8021703414698  0.4157443833328 1.0
A      1  0.8917660525129  0.8016651068955  0.5830098440974 1.0
A      1  0.7809308957312  0.8016338669769  0.7497384181814 1.0
A      1  0.8911935227089  0.8011490595375  0.9162026011148 1.0
A      1  0.6137686223551  0.9015426166294  0.0824208487769 1.0
A      1  0.7244177035629  0.9010051277140  0.2490546608524 1.0
A      1  0.6147144766646  0.9025202830805  0.4155124543027 1.0
A      1  0.7257070458651  0.9013250288151  0.5827809682937 1.0
A      1  0.6142748838061  0.9010707417431  0.7498093769885 1.0
A      1  0.7241963404008  0.9007420383889  0.9161753337535 1.0
A      1  0.4467335330093  0.0009399671511  0.0834287607210 1.0
A      1  0.5574548128049  0.0008830239643  0.2492005593541 1.0
A      1  0.4472466082419  0.0019499909215  0.4157993616787 1.0
A      1  0.5586616010529  0.0001631254482  0.5830591203115 1.0
A      1  0.4471351005467  0.9999032574313  0.7503606304178 1.0
A      1  0.5573917971209  0.0005561217674  0.9165596325764 1.0
A      1  0.7800528549260  0.0007376708004  0.0828148485752 1.0
A      1  0.8906795680429  0.0002525923340  0.2494533998997 1.0
A      1  0.7807631728457  0.0007453716560  0.4158541455795 1.0
A      1  0.8919678072746  0.0001635501758  0.5828764402705 1.0
A      1  0.7806111976350  0.0005472857728  0.7497986642571 1.0
A      1  0.8904939026592  0.0005224596420  0.9163103318871 1.0
END
