TITL AB-20764-5019-59 0.0000000000 4458.8459578500 -1497.3475260937 0 0  183 (P1) n - 1
REM
REM Run started: at Fri Oct 6 15:21:25 BST 2023 in /home/michal/install/eddp/airss/examples/1.11
REM pp3 from code version ## 0.9.3 July 2022 commit b0220bf5cbf550a3b7
REM
REM
REM
REM Total runtime: s
REM
REM
REM ./AB.cell (a186c3e4acc5915692489c59fabd1559)
REM ## AIRSS Version 0.9.3 July 2022 commit b0220bf5cbf550a3b7
REM compiler GCC version 11.4.0
REM options -cpp -imultiarch x86_64-linux-gnu -mtune=generic -march=x86-64 -g -Og -fpre-include=/usr/include/finclude/math-vector-fortran.h
REM cmdline: airss.pl -pp3 max 100 -seed AB 
REM seed -407010513 -1131381383 -1309374221 396833740 876632011 1458475831 -947193985 1624142413
REM
REM AB.pp (46f9ffe235eb1beff4ce53cde2d82919)
REM 
CELL 1.54180   16.99142   16.35000   16.05000   90.00000   90.00000   90.00000
LATT -1
SFAC A  B  
A      1  0.9448773077192  0.0979397932916  0.0846151707283 1.0
A      1  0.0555261460175  0.0971364280464  0.2513286166418 1.0
A      1  0.6037459169415  0.4919404286119  0.4239837183105 1.0
A      1  0.5501050506576  0.3998472113406  0.5863639351607 1.0
A      1  0.5606051152386  0.6024018172308  0.5907304903279 1.0
A      1  0.4420871776018  0.3886103487391  0.4156585610148 1.0
A      1  0.4313354099184  0.5761689356227  0.4497857928525 1.0
B      2  0.3572726559385  0.4536797134571  0.5415958657648 1.0
B      2  0.4315031516776  0.5139762589976  0.6211649501900 1.0
B      2  0.4979316533938  0.6747193972506  0.3498152469300 1.0
B      2  0.6594775511984  0.6031097797571  0.3350646716090 1.0
A      1  0.9443175075244  0.0982239534312  0.4182677351027 1.0
A      1  0.0549192685484  0.0972465971579  0.5849460055390 1.0
A      1  0.9445447536719  0.0984631713639  0.7515251383146 1.0
A      1  0.0555534021546  0.0978618179115  0.9181037548236 1.0
A      1  0.2779978661890  0.0974299985167  0.0848826613662 1.0
A      1  0.3884400360804  0.0962349263546  0.2516103928909 1.0
A      1  0.2769934866127  0.0968542439006  0.4184652527434 1.0
A      1  0.3880994346310  0.0983598757875  0.5858269656533 1.0
A      1  0.2777777877959  0.0978468302292  0.7519483361061 1.0
A      1  0.3888189123868  0.0982836174216  0.9187454893670 1.0
A      1  0.1113010883740  0.1974732094026  0.0843950612907 1.0
A      1  0.2215195096813  0.1961350821079  0.2510298658994 1.0
A      1  0.1099360325485  0.1969029981919  0.4179932576396 1.0
A      1  0.2209703461495  0.1964742323973  0.5849039228948 1.0
A      1  0.1109312849390  0.1978075418465  0.7513197975244 1.0
A      1  0.2220880406915  0.1976991430873  0.9178881365051 1.0
A      1  0.9448167168911  0.2971657952572  0.0841659033050 1.0
A      1  0.0547878767071  0.2964076907458  0.2507148213656 1.0
A      1  0.9426167488564  0.2974684386373  0.4178438890761 1.0
A      1  0.0538125008800  0.2967188929830  0.5846368810580 1.0
A      1  0.9444220724861  0.2979656054619  0.7511398611929 1.0
A      1  0.0557133546335  0.2975737575791  0.9175409137957 1.0
A      1  0.6112368590110  0.0972029264019  0.0854287205760 1.0
A      1  0.7219537302911  0.0978580236394  0.2519126643708 1.0
A      1  0.6110832892810  0.0985013591057  0.4186085496078 1.0
A      1  0.7217775657904  0.0986891851331  0.5851057289037 1.0
A      1  0.6112481942025  0.0993126830188  0.7521231456976 1.0
A      1  0.7222574853990  0.0982059804489  0.9182488310528 1.0
A      1  0.4445140990494  0.1973576003252  0.0845568566810 1.0
A      1  0.5547255219308  0.1963621857425  0.2515609297100 1.0
A      1  0.4433738100636  0.1947568068981  0.4181926830681 1.0
A      1  0.5544709557173  0.1990903889645  0.5850881424837 1.0
A      1  0.4443014493621  0.1987149134115  0.7518747084886 1.0
A      1  0.5555209863040  0.1978008208358  0.9181514048369 1.0
A      1  0.2775755812838  0.2971671719855  0.0833899079947 1.0
A      1  0.3873442949158  0.2955654709405  0.2497159659650 1.0
A      1  0.2755297610975  0.2954836544287  0.4175858767245 1.0
A      1  0.3868432356706  0.2973229076723  0.5852859813623 1.0
A      1  0.2773716533299  0.2973759733762  0.7514797717236 1.0
A      1  0.3888303861354  0.2978967301158  0.9178534394362 1.0
A      1  0.1104865198172  0.3973153753134  0.0835710663499 1.0
A      1  0.2203902001370  0.3950429680416  0.2488622544202 1.0
A      1  0.1076937740290  0.3953618339392  0.4171453348450 1.0
A      1  0.2188135227516  0.3947670064139  0.5843469943440 1.0
A      1  0.1114006722950  0.3976672432015  0.7512302677745 1.0
A      1  0.2223394904523  0.3979554269807  0.9166750059855 1.0
A      1  0.9442322301274  0.4974916699169  0.0846859724391 1.0
A      1  0.0551176748431  0.4970960715546  0.2509704984829 1.0
A      1  0.9448041003075  0.4974414528208  0.4180414706216 1.0
A      1  0.0566635865990  0.4974400970228  0.5841680432003 1.0
A      1  0.9454756420477  0.4975945867370  0.7514152335539 1.0
A      1  0.0559755754246  0.4977414489390  0.9174844112068 1.0
A      1  0.7780010987686  0.1972265297194  0.0844228120555 1.0
A      1  0.8886790939772  0.1971752380891  0.2511475021986 1.0
A      1  0.7774748673131  0.1984466080802  0.4183268601469 1.0
A      1  0.8878401166281  0.1979187190874  0.5848719214999 1.0
A      1  0.7776117373818  0.1986799310815  0.7512149265388 1.0
A      1  0.8888129843648  0.1979414599853  0.9178249112846 1.0
A      1  0.6112144394209  0.2963068223676  0.0842599425650 1.0
A      1  0.7222243509795  0.2960784354700  0.2510170342548 1.0
A      1  0.6107000422703  0.2958362587740  0.4184616267558 1.0
A      1  0.7207100524858  0.2992687568888  0.5843899349840 1.0
A      1  0.6107543933502  0.2987754368054  0.7508637850861 1.0
A      1  0.7219979037569  0.2978871134839  0.9173257365368 1.0
A      1  0.4443933425195  0.3981053106285  0.0850573019103 1.0
A      1  0.5555382534775  0.3944975399196  0.2511273716541 1.0
A      1  0.4435171385861  0.3993153014174  0.7500244234059 1.0
A      1  0.5547865438439  0.3971075230256  0.9163201664759 1.0
A      1  0.2767706612583  0.4968857796080  0.0843150861436 1.0
A      1  0.3865201373832  0.4965703985931  0.2543355872922 1.0
A      1  0.2689161069041  0.4931993719767  0.4127819121339 1.0
A      1  0.2809130952567  0.4976956863750  0.7466930131302 1.0
A      1  0.3883402106286  0.4970656897923  0.9165278854801 1.0
A      1  0.1102511510232  0.5973412763355  0.0837757539097 1.0
A      1  0.2201432436188  0.5970677190060  0.2496859850198 1.0
A      1  0.1104997876735  0.5980403999496  0.4178856188322 1.0
A      1  0.2285444607939  0.5941477276452  0.5820007555344 1.0
A      1  0.1128721763406  0.5971324328651  0.7501272761512 1.0
A      1  0.2228103943588  0.5970814850495  0.9168866905508 1.0
A      1  0.9443555451443  0.6978673961046  0.0848894240019 1.0
A      1  0.0555006976278  0.6974908610339  0.2510620812878 1.0
A      1  0.9465409708925  0.6988986064695  0.4186153023358 1.0
A      1  0.0585025360194  0.6970153720481  0.5850196755970 1.0
A      1  0.9458536253807  0.6981463953681  0.7517609818233 1.0
A      1  0.0566258108252  0.6976617198250  0.9177357731992 1.0
A      1  0.7792090177426  0.3957134001280  0.0826611821638 1.0
A      1  0.8894784494449  0.3967479139528  0.2510774271071 1.0
A      1  0.7759783880447  0.3995015750198  0.4171342118922 1.0
A      1  0.8884592255270  0.3981488623558  0.5841862402596 1.0
A      1  0.7782088473766  0.3979643029501  0.7509146916634 1.0
A      1  0.8896514921276  0.3977005554860  0.9173688094251 1.0
A      1  0.6132564751101  0.4936694771031  0.0784259439375 1.0
A      1  0.7242396867984  0.4930664710977  0.2461569049015 1.0
A      1  0.7222809083240  0.4984741094997  0.5855120892091 1.0
A      1  0.6115431851388  0.4984889793989  0.7523653775203 1.0
A      1  0.7237321300523  0.4976469135804  0.9165990114746 1.0
A      1  0.4402209297004  0.5972452866833  0.0786728998118 1.0
A      1  0.5498770953033  0.5880128196777  0.2323882859046 1.0
A      1  0.4462066561869  0.6015689979744  0.7566043381472 1.0
A      1  0.5566453840571  0.5982696280978  0.9186482809663 1.0
A      1  0.2754761319532  0.6978589388848  0.0831435375525 1.0
A      1  0.3842530726540  0.6964657464241  0.2471753823334 1.0
A      1  0.2800822204807  0.6961326695132  0.4173728131353 1.0
A      1  0.3905342327768  0.6998662045733  0.5918848355960 1.0
A      1  0.2774031709462  0.6981799121363  0.7525079920962 1.0
A      1  0.3881692855632  0.6998626410044  0.9187034726578 1.0
A      1  0.1105706080717  0.7979544682008  0.0847802949952 1.0
A      1  0.2215083296334  0.7975261111674  0.2516240654138 1.0
A      1  0.1123486341924  0.7975748517674  0.4182264824841 1.0
A      1  0.2235445935842  0.7966092240414  0.5848992571721 1.0
A      1  0.1115586710217  0.7981106843400  0.7515134679753 1.0
A      1  0.2219757026525  0.7985213564527  0.9183419478331 1.0
A      1  0.9453953229073  0.8987955866345  0.0846644752387 1.0
A      1  0.0565097287462  0.8980775423733  0.2516120463113 1.0
A      1  0.9461344739866  0.8990236858902  0.4185047228079 1.0
A      1  0.0567747941331  0.8974758275707  0.5850061241741 1.0
A      1  0.9454962135893  0.8988256830413  0.7516837584697 1.0
A      1  0.0560851544440  0.8981905221574  0.9181668845699 1.0
A      1  0.7782233911224  0.5973709511287  0.0835890720117 1.0
A      1  0.8885887651039  0.5977862096792  0.2521316200562 1.0
A      1  0.7832892275062  0.5994423015235  0.4236192226600 1.0
A      1  0.8920246788921  0.5978236942102  0.5866855384078 1.0
A      1  0.7793112249515  0.5978573797334  0.7528653076214 1.0
A      1  0.8902343611535  0.5979683755785  0.9181940645051 1.0
A      1  0.6121633132130  0.6980083132936  0.0831209681477 1.0
A      1  0.7281568290002  0.7052493987590  0.2450145308505 1.0
A      1  0.6174692703698  0.7109794472384  0.4361889150172 1.0
A      1  0.7279133750734  0.6996491173256  0.5913313437601 1.0
A      1  0.6132158354945  0.7005049881216  0.7550508480035 1.0
A      1  0.7239133330292  0.6984033762308  0.9186333367086 1.0
A      1  0.4450668878017  0.7973220178585  0.0860260744203 1.0
A      1  0.5571039875531  0.7944095870102  0.2547248314750 1.0
A      1  0.4430576916527  0.8010274874756  0.4249962080904 1.0
A      1  0.5548736293506  0.8031985446069  0.5927998729551 1.0
A      1  0.4446809753763  0.8006017800891  0.7555415839039 1.0
A      1  0.5559865415859  0.7989182789706  0.9198727157342 1.0
A      1  0.2780443753048  0.8973414291602  0.0857880397552 1.0
A      1  0.3896935501531  0.8957773457806  0.2533089018810 1.0
A      1  0.2773266513168  0.8975621245117  0.4189427537690 1.0
A      1  0.3879935893838  0.9000686764267  0.5879083057154 1.0
A      1  0.2776125937671  0.8982203070544  0.7526192690826 1.0
A      1  0.3886951146229  0.8990395854286  0.9200398329838 1.0
A      1  0.1116788014556  0.9978797087917  0.0849191267676 1.0
A      1  0.2226623264346  0.9969152817695  0.2517543172309 1.0
A      1  0.1112978318875  0.9978186815744  0.4183218849635 1.0
A      1  0.2218148153678  0.9974368507506  0.5854273559685 1.0
A      1  0.1113375912457  0.9982518942433  0.7517840943739 1.0
A      1  0.2222718318469  0.9981412378939  0.9187002839299 1.0
A      1  0.7797298469605  0.8002056936258  0.0824817740712 1.0
A      1  0.8917838231993  0.7996559464010  0.2512100089758 1.0
A      1  0.7816059199446  0.8002822264949  0.4182177135433 1.0
A      1  0.8915695134336  0.7985077972940  0.5854850171773 1.0
A      1  0.7798010710794  0.8000246341597  0.7536044657453 1.0
A      1  0.8906426230620  0.7982141275545  0.9181059959823 1.0
A      1  0.6116232052924  0.8973520294109  0.0866885627759 1.0
A      1  0.7228518230156  0.9000102324185  0.2522661270440 1.0
A      1  0.6114737160825  0.9022063630537  0.4196627366916 1.0
A      1  0.7228495087458  0.8984392818318  0.5856104469617 1.0
A      1  0.6125088159332  0.9005926170504  0.7543176940878 1.0
A      1  0.7226860117306  0.8988748162705  0.9189806610151 1.0
A      1  0.4445624157445  0.9973231809163  0.0860016798518 1.0
A      1  0.5551610900550  0.9968003235735  0.2523145053555 1.0
A      1  0.4438515770404  0.9980136285522  0.4194594966002 1.0
A      1  0.5552949146819  0.0001559048672  0.5863292767465 1.0
A      1  0.4448251119977  0.9992131417642  0.7531280789113 1.0
A      1  0.5555811433823  0.9984272252322  0.9197573859158 1.0
A      1  0.7782663075093  0.9986038601971  0.0851255412253 1.0
A      1  0.8893416367954  0.9982488985462  0.2516567270146 1.0
A      1  0.7786146567830  0.9991818860629  0.4188602758763 1.0
A      1  0.8891187685166  0.9980029690834  0.5851247660254 1.0
A      1  0.7784597241899  0.9992674297711  0.7517140632279 1.0
A      1  0.8891380888804  0.9981109661598  0.9182146385607 1.0
END
