TITL AB-20764-5019-205 0.0000000000 4458.8459578500 -1501.0772370638 0 0  183 (P1) n - 1
REM
REM Run started: at Fri Oct 6 15:26:52 BST 2023 in /home/michal/install/eddp/airss/examples/1.11
REM pp3 from code version ## 0.9.3 July 2022 commit b0220bf5cbf550a3b7
REM
REM
REM
REM Total runtime: s
REM
REM
REM ./AB.cell (a186c3e4acc5915692489c59fabd1559)
REM ## AIRSS Version 0.9.3 July 2022 commit b0220bf5cbf550a3b7
REM compiler GCC version 11.4.0
REM options -cpp -imultiarch x86_64-linux-gnu -mtune=generic -march=x86-64 -g -Og -fpre-include=/usr/include/finclude/math-vector-fortran.h
REM cmdline: airss.pl -pp3 max 100 -seed AB 
REM seed 406349944 -1891876311 1405168692 -1664732286 615697847 -1907277143 122003160 -2054051391
REM
REM AB.pp (46f9ffe235eb1beff4ce53cde2d82919)
REM 
CELL 1.54180   16.99142   16.35000   16.05000   90.00000   90.00000   90.00000
LATT -1
SFAC A  B  
A      1  0.9430887820493  0.1005023692419  0.0830051952126 1.0
A      1  0.0539772175028  0.1008015180867  0.2493903904131 1.0
A      1  0.5468541893298  0.4029813422489  0.5888295591818 1.0
A      1  0.4385720745699  0.6016494603553  0.4123108151169 1.0
A      1  0.4419900203334  0.4002491291816  0.4160107080594 1.0
A      1  0.3870683674304  0.5054359211972  0.5819049117954 1.0
A      1  0.6015331182606  0.5059297127868  0.4024553816861 1.0
B      2  0.6662236010454  0.4060665568993  0.4983394847671 1.0
B      2  0.5337110196579  0.5625306914906  0.6259189978665 1.0
B      2  0.6216030070393  0.5909938407631  0.5370442577221 1.0
B      2  0.5185998651188  0.6561856590694  0.5395260032192 1.0
A      1  0.9431332981013  0.1003263717253  0.4159441875426 1.0
A      1  0.0547481512115  0.1008043744580  0.5827104491330 1.0
A      1  0.9437437959019  0.1002512486331  0.7498185090182 1.0
A      1  0.0541832717210  0.1008371572609  0.9162796992942 1.0
A      1  0.2761716489547  0.1007154182288  0.0824382419224 1.0
A      1  0.3868253724447  0.1002203397848  0.2488784184730 1.0
A      1  0.2761067686202  0.1003343890852  0.4159175568164 1.0
A      1  0.3876500746639  0.1016936290926  0.5825957685278 1.0
A      1  0.2765943704421  0.1011518619644  0.7492768555361 1.0
A      1  0.3873157886364  0.1008907157175  0.9155931067882 1.0
A      1  0.1098096796564  0.2005281385783  0.0825917449452 1.0
A      1  0.2209175063257  0.2004833295461  0.2491219702581 1.0
A      1  0.1104754808253  0.2000697617419  0.4159010029451 1.0
A      1  0.2210658494576  0.2009651402088  0.5826608849095 1.0
A      1  0.1100458869610  0.2005790179056  0.7494928978413 1.0
A      1  0.2208112486708  0.2007945237356  0.9159988287016 1.0
A      1  0.9435876581180  0.3000788082034  0.0823263101108 1.0
A      1  0.0551888390562  0.3004348541747  0.2489628860288 1.0
A      1  0.9459900091506  0.2991914716705  0.4155436526953 1.0
A      1  0.0557355529620  0.3005182094033  0.5828222618631 1.0
A      1  0.9439733090744  0.3000445511957  0.7496447680597 1.0
A      1  0.0546872041902  0.3007054798427  0.9160150376272 1.0
A      1  0.6096691787068  0.1003348048754  0.0819643505701 1.0
A      1  0.7205321427986  0.1008227174928  0.2494783035325 1.0
A      1  0.6094169324524  0.0995815498242  0.4155562492557 1.0
A      1  0.7211440714736  0.0997668242744  0.5828320804870 1.0
A      1  0.6098410148297  0.1012078398329  0.7490438863907 1.0
A      1  0.7205612134679  0.1003334024171  0.9165361356127 1.0
A      1  0.4424177038610  0.2007219290849  0.0818628136276 1.0
A      1  0.5529387055302  0.1988576786015  0.2466155987229 1.0
A      1  0.4414800859559  0.1997250847755  0.4155084721750 1.0
A      1  0.5546835342254  0.2028358963629  0.5816020045173 1.0
A      1  0.4431440921032  0.2017184701302  0.7488178199037 1.0
A      1  0.5538052016078  0.2004286307641  0.9157060466113 1.0
A      1  0.2758859902367  0.3008166398283  0.0825141042142 1.0
A      1  0.3870961725518  0.3003038706658  0.2489231607190 1.0
A      1  0.2759057109357  0.3006519025861  0.4157173818555 1.0
A      1  0.3859856077039  0.3014319237592  0.5828253692621 1.0
A      1  0.2758287489900  0.3010802071843  0.7494879223741 1.0
A      1  0.3870200262790  0.3005907626794  0.9159259283373 1.0
A      1  0.1094450471302  0.4008725176054  0.0825661536616 1.0
A      1  0.2209345645706  0.4007494939129  0.2490620380101 1.0
A      1  0.1101151237030  0.4007746581241  0.4159397018410 1.0
A      1  0.2213352380074  0.4016040950627  0.5826744175246 1.0
A      1  0.1095268192088  0.4009561311748  0.7494259086302 1.0
A      1  0.2207318096166  0.4009650748991  0.9159560035914 1.0
A      1  0.9433385846654  0.5013867566158  0.0826970018540 1.0
A      1  0.0548641930330  0.5011075089546  0.2492655648736 1.0
A      1  0.9449839597844  0.5017040410360  0.4160899791415 1.0
A      1  0.0549740874473  0.5008146502040  0.5829463717904 1.0
A      1  0.9427816648371  0.5007794243116  0.7494982600735 1.0
A      1  0.0544295415111  0.5009753763882  0.9160439388109 1.0
A      1  0.7766287674820  0.2002449802643  0.0827829198121 1.0
A      1  0.8874461991030  0.2008906689534  0.2496088122527 1.0
A      1  0.7762675776092  0.2012169270428  0.4167409141154 1.0
A      1  0.8894669877376  0.1995350629111  0.5829925629409 1.0
A      1  0.7776404600462  0.1986656245595  0.7517992945033 1.0
A      1  0.8879321855180  0.2006555769195  0.9166156759485 1.0
A      1  0.6095527751532  0.3002176191780  0.0816301433275 1.0
A      1  0.7207293243885  0.3003967274454  0.2477575524940 1.0
A      1  0.6061697605795  0.2954586702362  0.4094003804749 1.0
A      1  0.7250772814311  0.2955640864289  0.5887413406173 1.0
A      1  0.6099307270889  0.3006754198863  0.7503551327866 1.0
A      1  0.7208159327442  0.3000903915681  0.9171330509789 1.0
A      1  0.4420445147904  0.4007682256880  0.0815700189499 1.0
A      1  0.5528442787004  0.3994883562334  0.2453242101715 1.0
A      1  0.4411126415266  0.4022281445484  0.7515204990586 1.0
A      1  0.5537564653401  0.4004919720903  0.9164738836475 1.0
A      1  0.2755238028260  0.5010228753139  0.0825794066010 1.0
A      1  0.3871391081235  0.5005399975392  0.2480939066993 1.0
A      1  0.2752186426428  0.5008473844228  0.4156800110974 1.0
A      1  0.2751791792036  0.5015848702502  0.7491954789186 1.0
A      1  0.3865581323814  0.5012375669182  0.9163403865404 1.0
A      1  0.1094006551964  0.6011730081485  0.0828220878134 1.0
A      1  0.2206834722793  0.6011346270288  0.2493073720910 1.0
A      1  0.1094105261209  0.6014919007052  0.4160752609640 1.0
A      1  0.2193790726676  0.6016494365203  0.5828104328973 1.0
A      1  0.1087608663176  0.6012498182890  0.7496357667261 1.0
A      1  0.2203357842020  0.6011806469518  0.9162315686004 1.0
A      1  0.9428120775828  0.7010807783896  0.0834793779190 1.0
A      1  0.0535971019596  0.7008558945190  0.2496303382808 1.0
A      1  0.9420076533281  0.7009256314732  0.4160880479254 1.0
A      1  0.0544962031961  0.7020020466619  0.5828188004906 1.0
A      1  0.9434779593143  0.7018883517757  0.7501967387963 1.0
A      1  0.0541106090713  0.7013006304591  0.9165830710907 1.0
A      1  0.7766771743898  0.4004927043308  0.0824234350575 1.0
A      1  0.8902561897979  0.4005552517570  0.2462206149486 1.0
A      1  0.7857631562172  0.3995358637945  0.4085052026087 1.0
A      1  0.8903291722708  0.3990836726862  0.5820500222838 1.0
A      1  0.7786325848870  0.3983548875830  0.7539283031311 1.0
A      1  0.8886894115243  0.4006719505896  0.9172250267148 1.0
A      1  0.6092944343777  0.5009939477919  0.0814214757331 1.0
A      1  0.7207718328578  0.5005072492306  0.2473378403799 1.0
A      1  0.7329513192570  0.5029041518752  0.5959456513389 1.0
A      1  0.6120097032857  0.4994460817346  0.7527409263927 1.0
A      1  0.7215744548721  0.5007405581352  0.9175788107680 1.0
A      1  0.4417566365699  0.6011985362517  0.0809555006932 1.0
A      1  0.5519611461142  0.6038203844369  0.2435859337330 1.0
A      1  0.4404445530657  0.6022517329353  0.7509085409912 1.0
A      1  0.5536922402695  0.6010436359871  0.9152650488357 1.0
A      1  0.2755602571629  0.7012585322848  0.0824588810510 1.0
A      1  0.3860405415858  0.7020569422186  0.2481119964236 1.0
A      1  0.2746556383080  0.7018082420812  0.4159925386986 1.0
A      1  0.3815027642313  0.7044054530605  0.5850347493603 1.0
A      1  0.2742477838257  0.7018071376950  0.7505231663613 1.0
A      1  0.3865563935335  0.7017897238357  0.9160677118800 1.0
A      1  0.1092227719014  0.8011060856883  0.0829813021997 1.0
A      1  0.2198470268202  0.8012447449975  0.2492909151087 1.0
A      1  0.1086634832008  0.8012876080638  0.4159176167749 1.0
A      1  0.2188383955557  0.8028093720081  0.5829031843599 1.0
A      1  0.1091155163683  0.8016493884664  0.7498790162626 1.0
A      1  0.2202114917124  0.8016451304433  0.9164522771297 1.0
A      1  0.9427375253960  0.9008419887851  0.0828831764160 1.0
A      1  0.0535124984697  0.9010103285481  0.2493681696701 1.0
A      1  0.9426435950938  0.9008652148672  0.4160422685556 1.0
A      1  0.0536892540279  0.9017735242849  0.5829268244835 1.0
A      1  0.9428753156988  0.9011609530978  0.7499135702948 1.0
A      1  0.0537252118095  0.9011931944795  0.9163671454925 1.0
A      1  0.7763469478152  0.6012412884338  0.0827106487998 1.0
A      1  0.8867913270139  0.6004074486791  0.2504589749528 1.0
A      1  0.7735177795651  0.5980307512278  0.4191468719163 1.0
A      1  0.8909957575283  0.6028521866174  0.5833532236113 1.0
A      1  0.7783593472126  0.6036279086070  0.7542741588937 1.0
A      1  0.8883428758546  0.6011053108669  0.9173982130702 1.0
A      1  0.6095786642678  0.7016934392918  0.0810428852157 1.0
A      1  0.7205616877697  0.7003034749873  0.2492690968006 1.0
A      1  0.6096604286098  0.7033480234667  0.4133214800483 1.0
A      1  0.7225530476428  0.7034279335012  0.5837566741240 1.0
A      1  0.6076466485427  0.6975632309390  0.7440021658033 1.0
A      1  0.7198443643206  0.7014191545945  0.9159912998740 1.0
A      1  0.4428212814251  0.8011634744998  0.0819526118087 1.0
A      1  0.5533943945915  0.8018868179544  0.2483833419612 1.0
A      1  0.4425662597788  0.8003807638246  0.4168804927569 1.0
A      1  0.5544577089063  0.8048008661452  0.5830990542345 1.0
A      1  0.4424555040053  0.8017678721508  0.7493044522248 1.0
A      1  0.5538538244576  0.8005122624528  0.9142830260870 1.0
A      1  0.2761758024247  0.9009888592357  0.0827558517133 1.0
A      1  0.3868905269420  0.9008857626444  0.2493549862361 1.0
A      1  0.2759592489296  0.9008796598693  0.4160142040581 1.0
A      1  0.3868926880117  0.9024533802863  0.5826695744758 1.0
A      1  0.2761824481408  0.9013684960478  0.7494315365361 1.0
A      1  0.3871643990691  0.9012941750541  0.9158602140735 1.0
A      1  0.1095601638271  0.0007598696025  0.0827921786967 1.0
A      1  0.2202957554081  0.0007737595021  0.2492881591879 1.0
A      1  0.1095027595970  0.0006073880421  0.4159982239638 1.0
A      1  0.2207333923315  0.0016264687527  0.5827316037757 1.0
A      1  0.1099135944384  0.0009686281350  0.7495797861135 1.0
A      1  0.2206197611025  0.0011118532811  0.9160539861254 1.0
A      1  0.7761576770252  0.8009086664586  0.0828708977006 1.0
A      1  0.8870527805631  0.8008448059620  0.2494618348904 1.0
A      1  0.7763652222701  0.8005321592638  0.4159758380275 1.0
A      1  0.8879856644007  0.8019240892279  0.5831714842768 1.0
A      1  0.7758256897596  0.8016141592441  0.7499995301903 1.0
A      1  0.8871015076277  0.8008865282463  0.9164931907060 1.0
A      1  0.6094447398051  0.9008695168180  0.0819484347832 1.0
A      1  0.7204665754578  0.9006359150229  0.2493191809490 1.0
A      1  0.6096082957753  0.9014054140141  0.4156992627808 1.0
A      1  0.7211687400317  0.9017527377257  0.5825063674695 1.0
A      1  0.6097782145701  0.9008722919762  0.7494110218733 1.0
A      1  0.7205848507660  0.9009831942226  0.9163708416049 1.0
A      1  0.4428276915848  0.0008943035635  0.0823758192991 1.0
A      1  0.5537858207559  0.0004791311648  0.2487510279502 1.0
A      1  0.4427384920796  0.0004007593465  0.4157601542051 1.0
A      1  0.5539720355567  0.0025313924367  0.5826668682973 1.0
A      1  0.4431237703262  0.0014479986565  0.7491836993040 1.0
A      1  0.5538566548663  0.0006718666597  0.9155667965318 1.0
A      1  0.7762426687765  0.0006255608263  0.0830259754104 1.0
A      1  0.8871484165581  0.0008615890402  0.2493851844133 1.0
A      1  0.7764805458515  0.0008596153739  0.4158164473985 1.0
A      1  0.8877001546192  0.0009748985534  0.5829159006575 1.0
A      1  0.7764471420521  0.0005040588917  0.7497368907499 1.0
A      1  0.8872522645737  0.0009283883666  0.9164194716796 1.0
END
