TITL AB-20764-5019-186 0.0000000000 4458.8459578500 -1494.4042676318 0 0  183 (P1) n - 1
REM
REM Run started: at Fri Oct 6 15:26:07 BST 2023 in /home/michal/install/eddp/airss/examples/1.11
REM pp3 from code version ## 0.9.3 July 2022 commit b0220bf5cbf550a3b7
REM
REM
REM
REM Total runtime: s
REM
REM
REM ./AB.cell (a186c3e4acc5915692489c59fabd1559)
REM ## AIRSS Version 0.9.3 July 2022 commit b0220bf5cbf550a3b7
REM compiler GCC version 11.4.0
REM options -cpp -imultiarch x86_64-linux-gnu -mtune=generic -march=x86-64 -g -Og -fpre-include=/usr/include/finclude/math-vector-fortran.h
REM cmdline: airss.pl -pp3 max 100 -seed AB 
REM seed -822623652 -202059984 352299676 -2002927396 242978630 677826167 208932667 -197939009
REM
REM AB.pp (46f9ffe235eb1beff4ce53cde2d82919)
REM 
CELL 1.54180   16.99142   16.35000   16.05000   90.00000   90.00000   90.00000
LATT -1
SFAC A  B  
A      1  0.9449127896214  0.1001099445313  0.0834026667091 1.0
A      1  0.0552644870292  0.0995831742755  0.2495617172240 1.0
A      1  0.5629743180398  0.6043643789219  0.5886896151175 1.0
A      1  0.6134281579433  0.5076137722036  0.4151970727296 1.0
A      1  0.4518251283150  0.4103288233181  0.4062349782356 1.0
A      1  0.5596625218481  0.4089462866565  0.5743670840957 1.0
A      1  0.3972842899229  0.5122850327557  0.5858422059189 1.0
B      2  0.4766712253994  0.6391426770974  0.4593499568860 1.0
B      2  0.3340602298953  0.4036381969397  0.4993502738449 1.0
B      2  0.5055427034281  0.3017128752481  0.6689294252355 1.0
B      2  0.4006654459917  0.5899067830845  0.3748653248264 1.0
A      1  0.9438635182893  0.1001103436013  0.4165722238737 1.0
A      1  0.0546948155224  0.0990019251798  0.5831807757245 1.0
A      1  0.9455832782093  0.0998237736479  0.7500422884653 1.0
A      1  0.0562216394881  0.0998828357579  0.9165390782217 1.0
A      1  0.2777863516915  0.0997744929400  0.0832334740875 1.0
A      1  0.3890550688241  0.1003999531862  0.2499852430403 1.0
A      1  0.2781124167786  0.0984661503676  0.4164660802105 1.0
A      1  0.3893595170297  0.0957487467832  0.5835392227743 1.0
A      1  0.2766751544278  0.0989613378058  0.7496487290264 1.0
A      1  0.3881738076301  0.0984541079851  0.9191996512201 1.0
A      1  0.1108383388522  0.2001901207176  0.0827573228950 1.0
A      1  0.2212429456496  0.1982181857431  0.2472445461704 1.0
A      1  0.1088074290973  0.1987789044535  0.4158483414410 1.0
A      1  0.2187431106488  0.1976713804357  0.5823354698937 1.0
A      1  0.1110449460450  0.2002601791541  0.7500549392056 1.0
A      1  0.2225903626807  0.1997991023683  0.9165274225078 1.0
A      1  0.9443550573772  0.3004355780440  0.0838279846061 1.0
A      1  0.0553884662739  0.3000167080909  0.2498730658689 1.0
A      1  0.9435260461791  0.3004634355564  0.4164810605700 1.0
A      1  0.0530532439351  0.2988512258684  0.5834110503253 1.0
A      1  0.9449259056871  0.3001367439369  0.7506492523573 1.0
A      1  0.0561406533799  0.2999371966895  0.9172186227728 1.0
A      1  0.6118405617045  0.1001965632707  0.0833646085189 1.0
A      1  0.7230568211079  0.1003755348174  0.2494547641505 1.0
A      1  0.6123126361758  0.0990561514540  0.4132318196686 1.0
A      1  0.7241987641011  0.0990580868446  0.5830692937913 1.0
A      1  0.6116782039609  0.1011507061980  0.7491040054720 1.0
A      1  0.7228080335272  0.1007995599218  0.9165956182555 1.0
A      1  0.4447275299948  0.2000511453868  0.0834565194088 1.0
A      1  0.5560514684434  0.2007265286555  0.2491420522726 1.0
A      1  0.4441557529712  0.2025646071734  0.4152059705040 1.0
A      1  0.5593782734496  0.1924602564950  0.5757819971017 1.0
A      1  0.4416074774615  0.1929399341545  0.7566204076817 1.0
A      1  0.5562115067024  0.2001403539028  0.9183087590617 1.0
A      1  0.2777302915590  0.3001790306632  0.0822857745935 1.0
A      1  0.3890198548761  0.3004568577969  0.2485224093664 1.0
A      1  0.2728857135019  0.2942254419222  0.4098953084644 1.0
A      1  0.3829563614264  0.2876757616868  0.5846449770552 1.0
A      1  0.2775358364805  0.2997838410629  0.7509933437349 1.0
A      1  0.3891764899154  0.3003089490538  0.9170707644408 1.0
A      1  0.1103871476506  0.4003355524804  0.0825101109376 1.0
A      1  0.2207892112141  0.3993695869452  0.2470513009877 1.0
A      1  0.1101594433229  0.3998004338885  0.4170543314877 1.0
A      1  0.2138582102097  0.3988171470361  0.5894298719757 1.0
A      1  0.1091197268714  0.4004175625610  0.7524759455583 1.0
A      1  0.2225333483902  0.4005696326047  0.9159261690101 1.0
A      1  0.9446220641378  0.5008363583710  0.0837201906924 1.0
A      1  0.0558420862600  0.5005953345460  0.2498970309500 1.0
A      1  0.9442500035823  0.5005405676199  0.4166254452705 1.0
A      1  0.0542132988467  0.5010575482790  0.5831987597010 1.0
A      1  0.9449446070564  0.5012997589517  0.7502334979886 1.0
A      1  0.0559522881371  0.5011177945086  0.9168234041134 1.0
A      1  0.7788261383132  0.1997959024026  0.0843512251354 1.0
A      1  0.8893540625973  0.2001978132884  0.2503792979582 1.0
A      1  0.7773665934724  0.2008121988671  0.4170062579647 1.0
A      1  0.8884930225536  0.2000167361181  0.5832121719650 1.0
A      1  0.7812128564183  0.1989429494337  0.7506355820780 1.0
A      1  0.8905600521731  0.1998771307514  0.9173514228229 1.0
A      1  0.6122578794638  0.3001804631433  0.0830110958061 1.0
A      1  0.7234534209910  0.3005173699926  0.2498646610233 1.0
A      1  0.6118166705075  0.3015869391384  0.4145162564344 1.0
A      1  0.7211573940419  0.3005109098934  0.5848863983953 1.0
A      1  0.6227891544765  0.2999516618334  0.7601654612549 1.0
A      1  0.7266488184450  0.3005583985391  0.9211699849101 1.0
A      1  0.4449650396251  0.3998618533935  0.0813776973971 1.0
A      1  0.5582084215942  0.4010101995418  0.2458896245912 1.0
A      1  0.4400659644682  0.4085711413854  0.7558884380302 1.0
A      1  0.5563027542363  0.4008616939652  0.9178412461096 1.0
A      1  0.2760451008812  0.5006369977560  0.0809084458381 1.0
A      1  0.3864906197848  0.4986311035025  0.2420644265814 1.0
A      1  0.2703867913527  0.5060282068434  0.4067415945878 1.0
A      1  0.2765851942290  0.5021279239933  0.7493713883125 1.0
A      1  0.3881221326918  0.5029303078811  0.9187793940512 1.0
A      1  0.1103024630378  0.6009327592805  0.0821216894330 1.0
A      1  0.2207676422951  0.6027637692011  0.2456703648534 1.0
A      1  0.1089796957694  0.6022256836486  0.4158371135265 1.0
A      1  0.2232429255460  0.5990799106728  0.5812242540021 1.0
A      1  0.1112390019009  0.6007860362914  0.7491006798832 1.0
A      1  0.2218242535826  0.6014661098703  0.9156605759383 1.0
A      1  0.9445177798545  0.7008836588565  0.0830124575136 1.0
A      1  0.0551274860699  0.7011860431707  0.2491867372897 1.0
A      1  0.9449407754908  0.7015131257259  0.4165459894878 1.0
A      1  0.0564787790941  0.7006030197077  0.5831688778482 1.0
A      1  0.9449943428011  0.7008429993078  0.7500231544440 1.0
A      1  0.0556068707222  0.7009131957048  0.9161041847471 1.0
A      1  0.7784610182202  0.4014179631559  0.0847111154706 1.0
A      1  0.8892762477756  0.4007969819430  0.2504622511831 1.0
A      1  0.7772563563534  0.4012850537343  0.4170554079133 1.0
A      1  0.8890681081508  0.4000797018174  0.5833869918254 1.0
A      1  0.7812276933534  0.4016537451279  0.7510043087140 1.0
A      1  0.8907441650777  0.4008962152633  0.9175343168315 1.0
A      1  0.6116351480303  0.5017733707008  0.0835196221444 1.0
A      1  0.7227722399741  0.5017150224057  0.2500285472169 1.0
A      1  0.7258549979053  0.5017047476976  0.5838453473906 1.0
A      1  0.6118768047067  0.4989387398503  0.7503169290868 1.0
A      1  0.7231504794409  0.5003292970118  0.9170615540968 1.0
A      1  0.4449228387442  0.6013952810465  0.0827695203467 1.0
A      1  0.5516502763608  0.6012134580842  0.2534250473797 1.0
A      1  0.4463871649827  0.6047053971968  0.7529278107546 1.0
A      1  0.5566300989479  0.6007183463533  0.9172664859331 1.0
A      1  0.2780044619537  0.7009557863103  0.0819698630079 1.0
A      1  0.3883367159486  0.7006165931770  0.2493764501712 1.0
A      1  0.2803440331542  0.7005178222052  0.4161821681200 1.0
A      1  0.3898699542694  0.7041046440462  0.5840030242444 1.0
A      1  0.2782907946628  0.7007697477173  0.7493258590233 1.0
A      1  0.3890124382534  0.7018083039057  0.9171103861414 1.0
A      1  0.1114373231906  0.8005423965489  0.0828772493271 1.0
A      1  0.2223600421867  0.8008070660445  0.2495577787063 1.0
A      1  0.1121789618968  0.8005899207398  0.4161358773990 1.0
A      1  0.2224363741506  0.7997230418530  0.5828134977605 1.0
A      1  0.1116175954668  0.8004565000171  0.7497200642282 1.0
A      1  0.2222369575235  0.8007418691498  0.9161136613835 1.0
A      1  0.9448355126266  0.9004727473106  0.0831928510572 1.0
A      1  0.0557043936805  0.9002946110368  0.2496057813949 1.0
A      1  0.9454403193920  0.9007613864282  0.4163446952337 1.0
A      1  0.0561286625146  0.8998912173659  0.5830564066044 1.0
A      1  0.9452295614727  0.9004561034697  0.7500983468415 1.0
A      1  0.0557196652147  0.9003692408921  0.9165473414014 1.0
A      1  0.7783747531640  0.6009651223273  0.0834809062266 1.0
A      1  0.8894481485068  0.6009083257431  0.2499409383691 1.0
A      1  0.7799522181753  0.6019912329742  0.4168414099049 1.0
A      1  0.8903214842936  0.6012471313427  0.5835962466611 1.0
A      1  0.7783168063631  0.6011210905161  0.7506835702909 1.0
A      1  0.8893998395451  0.6007263088615  0.9168395161940 1.0
A      1  0.6113393911190  0.7005144688708  0.0844229423693 1.0
A      1  0.7222133986025  0.7005078782313  0.2500096498658 1.0
A      1  0.6146435025673  0.7035368797413  0.4168940928007 1.0
A      1  0.7255931279676  0.7021849965021  0.5838927704144 1.0
A      1  0.6134960557641  0.7021282331739  0.7524217029865 1.0
A      1  0.7230776896861  0.7007619567107  0.9177984402907 1.0
A      1  0.4448689631748  0.8007841953720  0.0836618256709 1.0
A      1  0.5559500843181  0.8009241957528  0.2496821547096 1.0
A      1  0.4460942823060  0.7985945370719  0.4158568003429 1.0
A      1  0.5571977943762  0.8007957086340  0.5838011211782 1.0
A      1  0.4458471988183  0.8013805336140  0.7506046726999 1.0
A      1  0.5560952005895  0.8008041509703  0.9175344083196 1.0
A      1  0.2781586437102  0.9003626449086  0.0831580994004 1.0
A      1  0.3892245225791  0.9003754352516  0.2501244812189 1.0
A      1  0.2789274711407  0.8996822661378  0.4164603927155 1.0
A      1  0.3895498037120  0.8996947159925  0.5826626185975 1.0
A      1  0.2783441140909  0.8998463337010  0.7495872639065 1.0
A      1  0.3890984254235  0.9002135592320  0.9171169709467 1.0
A      1  0.1114449596145  0.0002071730432  0.0831828528241 1.0
A      1  0.2224017158217  0.9996438960867  0.2498312189460 1.0
A      1  0.1114505956802  0.9999220649869  0.4163231727097 1.0
A      1  0.2220165736020  0.9988251807714  0.5829628109054 1.0
A      1  0.1113786111285  0.9998606376188  0.7497619209245 1.0
A      1  0.2221390861807  0.9997536048590  0.9164818212899 1.0
A      1  0.7780826155594  0.8007102735263  0.0835695159249 1.0
A      1  0.8889745222112  0.8006596066490  0.2496888829440 1.0
A      1  0.7795218579781  0.8017254953948  0.4164010667017 1.0
A      1  0.8904710848936  0.8009321051884  0.5833999681620 1.0
A      1  0.7791815198808  0.8010923651979  0.7506016205582 1.0
A      1  0.8892880142732  0.8007058677356  0.9168372485611 1.0
A      1  0.6117001135836  0.9005185351959  0.0831642179038 1.0
A      1  0.7225206923229  0.9005923894790  0.2497969533959 1.0
A      1  0.6120815188060  0.9007909157937  0.4162282840159 1.0
A      1  0.7236070725446  0.9003289801808  0.5833303483413 1.0
A      1  0.6125494596021  0.9009601405430  0.7505174388529 1.0
A      1  0.7227474883338  0.9006840358634  0.9169181355104 1.0
A      1  0.4450201996585  0.0000774637900  0.0838338038760 1.0
A      1  0.5558519600400  0.0002949848609  0.2490617079879 1.0
A      1  0.4455723337693  0.0002518970078  0.4161185775139 1.0
A      1  0.5568686929764  0.9978761763744  0.5830919615850 1.0
A      1  0.4451096447540  0.9981532021016  0.7504709987357 1.0
A      1  0.5559856494689  0.0007393326765  0.9165769632249 1.0
A      1  0.7783153704945  0.0003206008885  0.0831024986075 1.0
A      1  0.8891020640319  0.0001688034858  0.2497167377028 1.0
A      1  0.7786007078186  0.0004801177614  0.4162850524124 1.0
A      1  0.8896103396652  0.9998449274620  0.5833834920428 1.0
A      1  0.7786124786831  0.0003058431070  0.7502460589578 1.0
A      1  0.8893449483966  0.0004187864326  0.9166543459564 1.0
END
