TITL AB-20764-5019-498 0.0000000000 4458.8459578500 -1496.7558001545 0 0  183 (P1) n - 1
REM
REM Run started: at Fri Oct 6 15:37:54 BST 2023 in /home/michal/install/eddp/airss/examples/1.11
REM pp3 from code version ## 0.9.3 July 2022 commit b0220bf5cbf550a3b7
REM
REM
REM
REM Total runtime: s
REM
REM
REM ./AB.cell (a186c3e4acc5915692489c59fabd1559)
REM ## AIRSS Version 0.9.3 July 2022 commit b0220bf5cbf550a3b7
REM compiler GCC version 11.4.0
REM options -cpp -imultiarch x86_64-linux-gnu -mtune=generic -march=x86-64 -g -Og -fpre-include=/usr/include/finclude/math-vector-fortran.h
REM cmdline: airss.pl -pp3 max 100 -seed AB 
REM seed -164656139 -748922334 30249445 -1042384104 -878163494 1212030692 1306335929 -509666830
REM
REM AB.pp (46f9ffe235eb1beff4ce53cde2d82919)
REM 
CELL 1.54180   16.99142   16.35000   16.05000   90.00000   90.00000   90.00000
LATT -1
SFAC A  B  
A      1  0.9430665301923  0.0991518521233  0.0840740062487 1.0
A      1  0.0538778106169  0.0986516749790  0.2508843688694 1.0
A      1  0.4256983018580  0.4034459971932  0.4213789306680 1.0
A      1  0.5939876062136  0.4731391720513  0.4505220310769 1.0
A      1  0.3903372993032  0.5008151294690  0.5864555636383 1.0
A      1  0.4445749017243  0.6001533451221  0.4172460097837 1.0
A      1  0.5543274012331  0.6044981738459  0.5889779915138 1.0
B      2  0.5277751494305  0.3469901748062  0.5352149576261 1.0
B      2  0.5453634359068  0.4415300712586  0.6193076654447 1.0
B      2  0.5000011777508  0.3031729903383  0.3346112700699 1.0
B      2  0.6519428465330  0.5745767639765  0.3487751256869 1.0
A      1  0.9444594134973  0.0980666153569  0.4179930291965 1.0
A      1  0.0539950627696  0.0996410846693  0.5850485502368 1.0
A      1  0.9429167106731  0.1002440391967  0.7513490969880 1.0
A      1  0.0540495741555  0.0998993892772  0.9177471176093 1.0
A      1  0.2766256823321  0.1000562249133  0.0847951356969 1.0
A      1  0.3876697979258  0.1003756288832  0.2522837943436 1.0
A      1  0.2746080849521  0.0980067301125  0.4183811189560 1.0
A      1  0.3859124998802  0.0977247423961  0.5873269966346 1.0
A      1  0.2759242151822  0.0998552738047  0.7520585960820 1.0
A      1  0.3874955090359  0.1002718971071  0.9181408295037 1.0
A      1  0.1092715635148  0.1992625527101  0.0839507921990 1.0
A      1  0.2186351413560  0.1981119797464  0.2505282576721 1.0
A      1  0.1082624041268  0.1986278474434  0.4180753280927 1.0
A      1  0.2202657419028  0.1992466228674  0.5850299436768 1.0
A      1  0.1095659649875  0.1999675528930  0.7512250183376 1.0
A      1  0.2207225835733  0.1997418996270  0.9174548096260 1.0
A      1  0.9435705647260  0.2989254997364  0.0838139278891 1.0
A      1  0.0547035347677  0.2988346668903  0.2510572367788 1.0
A      1  0.9431373609786  0.2996103247142  0.4180937970988 1.0
A      1  0.0545189086956  0.2999824462528  0.5845755576421 1.0
A      1  0.9434063192921  0.3001242236588  0.7509585886104 1.0
A      1  0.0545681239264  0.2998772218051  0.9174516327357 1.0
A      1  0.6109284596334  0.0986797918225  0.0816645295643 1.0
A      1  0.7225353254702  0.0977241045764  0.2510357145946 1.0
A      1  0.6096968831098  0.0951790651756  0.4170667223789 1.0
A      1  0.7210477838077  0.1004249729342  0.5838632101394 1.0
A      1  0.6100979707259  0.1006523359641  0.7517843293556 1.0
A      1  0.7215034957908  0.0998835970588  0.9170711662667 1.0
A      1  0.4432120232507  0.2001455513302  0.0832294721629 1.0
A      1  0.5578866374210  0.1926784822559  0.2448879140272 1.0
A      1  0.4395137894819  0.1937242762669  0.4244762176460 1.0
A      1  0.5541696825737  0.1964857741392  0.5862430673326 1.0
A      1  0.4428875248522  0.1997735968863  0.7521495141901 1.0
A      1  0.5546601732655  0.2010275880982  0.9170238004861 1.0
A      1  0.2743655365538  0.3000606333946  0.0817306349196 1.0
A      1  0.3792347040329  0.2992560962425  0.2449131091854 1.0
A      1  0.2721482211358  0.2969603912890  0.4171074462518 1.0
A      1  0.3861684576933  0.2987658002493  0.5869457818507 1.0
A      1  0.2762245689280  0.3000868424696  0.7516922218789 1.0
A      1  0.3877060792717  0.3007346016812  0.9175570342002 1.0
A      1  0.1088555178677  0.3998361005170  0.0842837284474 1.0
A      1  0.2187100405972  0.4005152697890  0.2510935444128 1.0
A      1  0.1084772746208  0.3994524818946  0.4179672937718 1.0
A      1  0.2218289963074  0.4001220103266  0.5839628692439 1.0
A      1  0.1100927694383  0.4000674036753  0.7508444467889 1.0
A      1  0.2205590893144  0.4004234238803  0.9171426790682 1.0
A      1  0.9428251615734  0.4997764280385  0.0848645416897 1.0
A      1  0.0542669395975  0.5001996298650  0.2513057275041 1.0
A      1  0.9438354005645  0.4994484490344  0.4182779486248 1.0
A      1  0.0550387749020  0.4999206251911  0.5847457895945 1.0
A      1  0.9438750608485  0.5001162466611  0.7515685716093 1.0
A      1  0.0546132826900  0.5000847817932  0.9179545729421 1.0
A      1  0.7764956877752  0.1989325814970  0.0837212667092 1.0
A      1  0.8887985721405  0.1984997732444  0.2502934211311 1.0
A      1  0.7821940244856  0.1960183297193  0.4175692855315 1.0
A      1  0.8878781003185  0.2002208730316  0.5850598578932 1.0
A      1  0.7759814351298  0.2007759278846  0.7505315311838 1.0
A      1  0.8875115202891  0.2001119467032  0.9173673098699 1.0
A      1  0.6100459590668  0.3012596253475  0.0847480459907 1.0
A      1  0.7225927841661  0.2980716487380  0.2499745274593 1.0
A      1  0.6220289818213  0.2864604738113  0.4193451900785 1.0
A      1  0.7200903214382  0.3022936445666  0.5853421884206 1.0
A      1  0.6084619048924  0.3033225937349  0.7474041875434 1.0
A      1  0.7203781952355  0.2998659584988  0.9163451234309 1.0
A      1  0.4440442446303  0.4007805287778  0.0851284968058 1.0
A      1  0.5624264123618  0.4136720800933  0.2501730802278 1.0
A      1  0.4443169057224  0.4006883499934  0.7499605983682 1.0
A      1  0.5544711679926  0.4006668525866  0.9177074356557 1.0
A      1  0.2756312309073  0.4995411560009  0.0842193132001 1.0
A      1  0.3856968527158  0.4999210725303  0.2508277911051 1.0
A      1  0.2706195885082  0.5032653281530  0.4178834622492 1.0
A      1  0.2768279137328  0.5000782351638  0.7510060410023 1.0
A      1  0.3874799869338  0.4998062511045  0.9172562081520 1.0
A      1  0.1093575703944  0.5998609361681  0.0844164282075 1.0
A      1  0.2196493912950  0.6007038623323  0.2505846818899 1.0
A      1  0.1081247551983  0.6010308653018  0.4182209334906 1.0
A      1  0.2211709351134  0.6002419677433  0.5853895665484 1.0
A      1  0.1100625407773  0.6001371197740  0.7516137059537 1.0
A      1  0.2211259503944  0.6001655327287  0.9178577766561 1.0
A      1  0.9436543888521  0.7001589370258  0.0848751065250 1.0
A      1  0.0541445860455  0.7004374609330  0.2513129788953 1.0
A      1  0.9440775173869  0.7007226385803  0.4189311037482 1.0
A      1  0.0547439155293  0.7002685907435  0.5854549845933 1.0
A      1  0.9439058301739  0.7008556135589  0.7521611168839 1.0
A      1  0.0547237874238  0.7002221780694  0.9182125480826 1.0
A      1  0.7779441445521  0.3977767477096  0.0809733236929 1.0
A      1  0.8908166958794  0.3976222779464  0.2509334161486 1.0
A      1  0.7756477944995  0.4020320588168  0.4168320659228 1.0
A      1  0.8876503987671  0.4003090450537  0.5843991167139 1.0
A      1  0.7774776959429  0.4005298241550  0.7523525732916 1.0
A      1  0.8886994478781  0.3999077742590  0.9173480500815 1.0
A      1  0.6113367898313  0.5027028435145  0.0816733605284 1.0
A      1  0.7308745072908  0.4960037301118  0.2427326334892 1.0
A      1  0.7214998377278  0.5011815923586  0.5894847337102 1.0
A      1  0.6113658830269  0.5028596785677  0.7547732023991 1.0
A      1  0.7223000971606  0.5006292598383  0.9180297932866 1.0
A      1  0.4406091310249  0.6003806645425  0.0816502082270 1.0
A      1  0.5462167652553  0.6063319892884  0.2433995435784 1.0
A      1  0.4431988351051  0.6010188514450  0.7526730684955 1.0
A      1  0.5540145574790  0.6015541129939  0.9182326744415 1.0
A      1  0.2754004662550  0.7003393794461  0.0842134439451 1.0
A      1  0.3840863874753  0.7016106777432  0.2511718492920 1.0
A      1  0.2758552520594  0.7003594655891  0.4183430909266 1.0
A      1  0.3872435044935  0.7002921719046  0.5848087875423 1.0
A      1  0.2763997569784  0.7003219001025  0.7515073077609 1.0
A      1  0.3869971962004  0.7010367608116  0.9177848943057 1.0
A      1  0.1096837572093  0.8001347016664  0.0846177605165 1.0
A      1  0.2197404536367  0.8005864590575  0.2513745239601 1.0
A      1  0.1097366680015  0.8000701371902  0.4184010544073 1.0
A      1  0.2206097560236  0.7999607321369  0.5851322782876 1.0
A      1  0.1099833354600  0.8003679145636  0.7516910094395 1.0
A      1  0.2207345463697  0.8004148002940  0.9180535545196 1.0
A      1  0.9432785230128  0.8996348641781  0.0848289922853 1.0
A      1  0.0537589589940  0.8995553677120  0.2514116234692 1.0
A      1  0.9431376397840  0.8992107513829  0.4182728569367 1.0
A      1  0.0538964202566  0.8998537825931  0.5850167149937 1.0
A      1  0.9433216047532  0.9004642784805  0.7515922294188 1.0
A      1  0.0541777692223  0.9000811204186  0.9181622955838 1.0
A      1  0.7778963259937  0.6015037181426  0.0831797797616 1.0
A      1  0.8891426974832  0.6005389724010  0.2522403599388 1.0
A      1  0.7816136060478  0.6005782128709  0.4235159309635 1.0
A      1  0.8894528483325  0.6003181130002  0.5869552427366 1.0
A      1  0.7778685379907  0.6016031860685  0.7528864241980 1.0
A      1  0.8887587369959  0.6002230119457  0.9181264342417 1.0
A      1  0.6103621366608  0.7017838183880  0.0834093778161 1.0
A      1  0.7194986663193  0.6970451574397  0.2531319415056 1.0
A      1  0.6077807710148  0.7043098208072  0.4230302874814 1.0
A      1  0.7215478700312  0.7010950991051  0.5867675591757 1.0
A      1  0.6105680322184  0.7021557614686  0.7531789886096 1.0
A      1  0.7213543618440  0.7007840148627  0.9182281932108 1.0
A      1  0.4429351510993  0.8000424351892  0.0851289901097 1.0
A      1  0.5535900295507  0.8007505413131  0.2520695416765 1.0
A      1  0.4419133361674  0.7999484124111  0.4183589917270 1.0
A      1  0.5534909513612  0.8021362715426  0.5869324189565 1.0
A      1  0.4429459904896  0.8004859808898  0.7519957761678 1.0
A      1  0.5538064576729  0.8011127821270  0.9182802035313 1.0
A      1  0.2764098108848  0.9000381072191  0.0847527857499 1.0
A      1  0.3867464899540  0.9003686345762  0.2513699919524 1.0
A      1  0.2757876827300  0.8994040945905  0.4183027557627 1.0
A      1  0.3866627408443  0.8995197747926  0.5853817705719 1.0
A      1  0.2763572322685  0.9002246990736  0.7518526239897 1.0
A      1  0.3873085408386  0.9005235137076  0.9185926264988 1.0
A      1  0.1098474432601  0.9997085966266  0.0845978441837 1.0
A      1  0.2206054923338  0.9994983416885  0.2512114100763 1.0
A      1  0.1094837509416  0.9989052241716  0.4180831692170 1.0
A      1  0.2199309084683  0.9992761128700  0.5852561146523 1.0
A      1  0.1095852014106  0.0000640963300  0.7516888291149 1.0
A      1  0.2207297231973  0.0001114837752  0.9183670308509 1.0
A      1  0.7767220318297  0.7999300232923  0.0855026992705 1.0
A      1  0.8869842780704  0.7992156219194  0.2518020118104 1.0
A      1  0.7764297859531  0.7991964702178  0.4185789243159 1.0
A      1  0.8877277250041  0.8001616499802  0.5852477665318 1.0
A      1  0.7771803174288  0.8012447029787  0.7520778609286 1.0
A      1  0.8878005177027  0.8001260863526  0.9185651082630 1.0
A      1  0.6098925576474  0.8999992314836  0.0845176895075 1.0
A      1  0.7207683841968  0.8983097887974  0.2516752816619 1.0
A      1  0.6096690808292  0.8995945191899  0.4187221202188 1.0
A      1  0.7208752202638  0.9003407277429  0.5850650490219 1.0
A      1  0.6102554973004  0.9010751983739  0.7521565281892 1.0
A      1  0.7209948543521  0.9002495656456  0.9183453690114 1.0
A      1  0.4431915854222  0.0003072576730  0.0849417943214 1.0
A      1  0.5541212796439  0.9976459674055  0.2507024284800 1.0
A      1  0.4423215605263  0.9977765388122  0.4185592421142 1.0
A      1  0.5537448570064  0.9995359176968  0.5853967425622 1.0
A      1  0.4432013273568  0.9998193326186  0.7521708420158 1.0
A      1  0.5540304094530  0.0004158018997  0.9177382181165 1.0
A      1  0.7769005957772  0.9991437381391  0.0845089883965 1.0
A      1  0.8877432077148  0.9987257011584  0.2513223398085 1.0
A      1  0.7770809160209  0.9980485143591  0.4180747638052 1.0
A      1  0.8875137301426  0.0000573395493  0.5847486514662 1.0
A      1  0.7766423040266  0.0006689388565  0.7510424229345 1.0
A      1  0.8876420671374  0.9998698647278  0.9178392613779 1.0
END
