TITL AB-20764-5019-200 0.0000000000 4458.8459578500 -1487.8271919970 0 0  183 (P1) n - 1
REM
REM Run started: at Fri Oct 6 15:26:40 BST 2023 in /home/michal/install/eddp/airss/examples/1.11
REM pp3 from code version ## 0.9.3 July 2022 commit b0220bf5cbf550a3b7
REM
REM
REM
REM Total runtime: s
REM
REM
REM ./AB.cell (a186c3e4acc5915692489c59fabd1559)
REM ## AIRSS Version 0.9.3 July 2022 commit b0220bf5cbf550a3b7
REM compiler GCC version 11.4.0
REM options -cpp -imultiarch x86_64-linux-gnu -mtune=generic -march=x86-64 -g -Og -fpre-include=/usr/include/finclude/math-vector-fortran.h
REM cmdline: airss.pl -pp3 max 100 -seed AB 
REM seed 985346818 -844622831 -49515496 786379199 1259925860 1764155286 287489420 993147923
REM
REM AB.pp (46f9ffe235eb1beff4ce53cde2d82919)
REM 
CELL 1.54180   16.99142   16.35000   16.05000   90.00000   90.00000   90.00000
LATT -1
SFAC A  B  
A      1  0.9446257623227  0.0997955296584  0.0844879809238 1.0
A      1  0.0555716720184  0.0993283112130  0.2513642974564 1.0
A      1  0.5502018189781  0.3995997345182  0.5830354866673 1.0
A      1  0.5540969865998  0.6037202882317  0.5897747439541 1.0
A      1  0.3893546899667  0.5019766344116  0.5846278587899 1.0
A      1  0.5976250271463  0.5142377668911  0.4240772801864 1.0
A      1  0.4491643212615  0.3986563714271  0.4206917108272 1.0
B      2  0.3286182333011  0.3986885360223  0.3320528449098 1.0
B      2  0.4548757798197  0.6205795361656  0.4007149669342 1.0
B      2  0.6708181326775  0.4009252444452  0.6715694288153 1.0
B      2  0.6633308861699  0.4054725715225  0.3389649446413 1.0
A      1  0.9445904647884  0.0989078981467  0.4179647358797 1.0
A      1  0.0555604672145  0.0989434410285  0.5853152233698 1.0
A      1  0.9444207435076  0.0994520795980  0.7517275596867 1.0
A      1  0.0553586362451  0.0997243134426  0.9183963886559 1.0
A      1  0.2774261299092  0.0999745269309  0.0854961173850 1.0
A      1  0.3885098961413  0.0965995217238  0.2515902188787 1.0
A      1  0.2769018646531  0.0966951150167  0.4186120999856 1.0
A      1  0.3879246769857  0.0988559280334  0.5851141381241 1.0
A      1  0.2772388641829  0.0986434988245  0.7524752327985 1.0
A      1  0.3878787305440  0.0987225543966  0.9183810204404 1.0
A      1  0.1106128103584  0.2000870860798  0.0851888412581 1.0
A      1  0.2213611194107  0.2000971187800  0.2525353112728 1.0
A      1  0.1095768153350  0.1978835161844  0.4185976945344 1.0
A      1  0.2211049578710  0.1971963425391  0.5881877703103 1.0
A      1  0.1113707828357  0.1990072896427  0.7521599072166 1.0
A      1  0.2221072703979  0.1992992017711  0.9181140862468 1.0
A      1  0.9433117242969  0.2993184115195  0.0856856941060 1.0
A      1  0.0527658432648  0.2989779983065  0.2513863643149 1.0
A      1  0.9468350655644  0.2994161762950  0.4190388441480 1.0
A      1  0.0573370329231  0.3001456870161  0.5846081809422 1.0
A      1  0.9477312819294  0.2983987704330  0.7520237619591 1.0
A      1  0.0563924011454  0.2990929728952  0.9177389713450 1.0
A      1  0.6116789734232  0.0993086689598  0.0853009079564 1.0
A      1  0.7224691237982  0.0983384965459  0.2510306530901 1.0
A      1  0.6110863253625  0.0971061458436  0.4188440845863 1.0
A      1  0.7224251466665  0.0977236020328  0.5846338652116 1.0
A      1  0.6111424853718  0.0975226774698  0.7523592187652 1.0
A      1  0.7221476153348  0.0998832750803  0.9176467486113 1.0
A      1  0.4447698674582  0.1976426627582  0.0825069398464 1.0
A      1  0.5567573080514  0.1987146201081  0.2520129041950 1.0
A      1  0.4423341320787  0.1979655046773  0.4180427294265 1.0
A      1  0.5545453270649  0.1981094036060  0.5884268768782 1.0
A      1  0.4421674760245  0.1979625479066  0.7525630969286 1.0
A      1  0.5546704721198  0.1976203648617  0.9203816659748 1.0
A      1  0.2762212444348  0.2994090759232  0.0826033384989 1.0
A      1  0.3900823960449  0.2902928420845  0.2441101190332 1.0
A      1  0.2734670326447  0.2913589043537  0.4257494352891 1.0
A      1  0.3877992222751  0.2986256440422  0.5861710467679 1.0
A      1  0.2773079871464  0.2997477394076  0.7519703032916 1.0
A      1  0.3887522546651  0.2994059372156  0.9172218756796 1.0
A      1  0.1069889878778  0.4003266532326  0.0804722117323 1.0
A      1  0.2111918748178  0.4001116829632  0.2411065902562 1.0
A      1  0.1138291979946  0.4007534333843  0.4165963538783 1.0
A      1  0.2230419731954  0.4006131729564  0.5855093004494 1.0
A      1  0.1118638932111  0.4001666322249  0.7514911417880 1.0
A      1  0.2224437584548  0.4003079650080  0.9175756117568 1.0
A      1  0.9432177082656  0.5015469134378  0.0853754791158 1.0
A      1  0.0527056757278  0.5014786573517  0.2510927269894 1.0
A      1  0.9462947729686  0.5011786986178  0.4186675191213 1.0
A      1  0.0567743378465  0.5001942950739  0.5845104479530 1.0
A      1  0.9475923079104  0.5018366482227  0.7517942265273 1.0
A      1  0.0563276592306  0.5012801132204  0.9175656989695 1.0
A      1  0.7780323340751  0.1987408923119  0.0833946088969 1.0
A      1  0.8894310218047  0.1987716123371  0.2511580030656 1.0
A      1  0.7790926563903  0.1981514089357  0.4153529199949 1.0
A      1  0.8913043179622  0.1987771438524  0.5846262734608 1.0
A      1  0.7777874968959  0.2004830975310  0.7509985471185 1.0
A      1  0.8890000240458  0.2002186068903  0.9177023856483 1.0
A      1  0.6101235240412  0.2997273051054  0.0844983137899 1.0
A      1  0.7242381575133  0.2957895049009  0.2472159249995 1.0
A      1  0.6084097985450  0.2906985706352  0.4240881027995 1.0
A      1  0.7267796226457  0.2920651483961  0.5797688213501 1.0
A      1  0.6067165366781  0.2927961027475  0.7585160144262 1.0
A      1  0.7222297777549  0.2997927540753  0.9194444443680 1.0
A      1  0.4410246102448  0.4002990781751  0.0818599077216 1.0
A      1  0.5459148362367  0.3997584966715  0.2447488784257 1.0
A      1  0.4442685330464  0.4001616267074  0.7515460058914 1.0
A      1  0.5550474931714  0.4001238725820  0.9192695692958 1.0
A      1  0.2768324528224  0.5008761461403  0.0835155437011 1.0
A      1  0.3911837118410  0.5103449721922  0.2484552229116 1.0
A      1  0.2777746800041  0.5096504094528  0.4246824791185 1.0
A      1  0.2776655368908  0.5003752191842  0.7515946154570 1.0
A      1  0.3887548726082  0.5008741336291  0.9174108576589 1.0
A      1  0.1107806845512  0.6003607905554  0.0849102835639 1.0
A      1  0.2213660030667  0.5999234524945  0.2520843746790 1.0
A      1  0.1107077552812  0.6017514785430  0.4183828023160 1.0
A      1  0.2211109073526  0.6023341573466  0.5876581277729 1.0
A      1  0.1115194749779  0.6010861021021  0.7519662249531 1.0
A      1  0.2222776463582  0.6008509438699  0.9181561647282 1.0
A      1  0.9449169320066  0.7011313010190  0.0840451500957 1.0
A      1  0.0557280249518  0.7009768459135  0.2512585988339 1.0
A      1  0.9443116476269  0.7008645059149  0.4177411077400 1.0
A      1  0.0552077916193  0.7006664513942  0.5850129414577 1.0
A      1  0.9442002065891  0.7005797026517  0.7511929482552 1.0
A      1  0.0553839306833  0.7005317587317  0.9180522533238 1.0
A      1  0.7772599533343  0.4002905293543  0.0841439159905 1.0
A      1  0.8875374041357  0.4005312771933  0.2520750704660 1.0
A      1  0.7866021013888  0.3993054090296  0.4236152186991 1.0
A      1  0.8902908110086  0.4002462990756  0.5887776851614 1.0
A      1  0.7891172878428  0.3998639490515  0.7613918551679 1.0
A      1  0.8926770004517  0.4002198510900  0.9223267596425 1.0
A      1  0.6099340739107  0.5008229578830  0.0842622452970 1.0
A      1  0.7255250633673  0.5078380533261  0.2435895530320 1.0
A      1  0.7244034730085  0.5081780885382  0.5765317038887 1.0
A      1  0.6060658138322  0.5079331019508  0.7589584523843 1.0
A      1  0.7221601700889  0.5006183728248  0.9191215978887 1.0
A      1  0.4444458881548  0.6020828509962  0.0836618356809 1.0
A      1  0.5564227950207  0.6029445389100  0.2520847224077 1.0
A      1  0.4417659836220  0.6023125405967  0.7528475623654 1.0
A      1  0.5543674127315  0.6029916484592  0.9208109844467 1.0
A      1  0.2776877162008  0.7003383135619  0.0857987602503 1.0
A      1  0.3895207795054  0.7026855844860  0.2531787423452 1.0
A      1  0.2791424841471  0.7021752032492  0.4181041859073 1.0
A      1  0.3887385069762  0.6997808736184  0.5829603382383 1.0
A      1  0.2773862306720  0.7013505118497  0.7519813302143 1.0
A      1  0.3878726963621  0.7014609618137  0.9186925678924 1.0
A      1  0.1112419373506  0.8003699431233  0.0847920039666 1.0
A      1  0.2218726005965  0.8001654173411  0.2515351863576 1.0
A      1  0.1112118305138  0.8002398100190  0.4182834502998 1.0
A      1  0.2218494240222  0.8003675493408  0.5851249770730 1.0
A      1  0.1108279831168  0.8003419914742  0.7516852669324 1.0
A      1  0.2216227807770  0.8003625343435  0.9186963764121 1.0
A      1  0.9448116925122  0.9004142193989  0.0844662095516 1.0
A      1  0.0555245231048  0.9000427565055  0.2513547722981 1.0
A      1  0.9447351746645  0.8998816246212  0.4179768665338 1.0
A      1  0.0552775181574  0.8997569818498  0.5850194276001 1.0
A      1  0.9444688283567  0.9000418132867  0.7515125981979 1.0
A      1  0.0551999887468  0.9000802684407  0.9182420161860 1.0
A      1  0.7785530313910  0.6030169178103  0.0815643605194 1.0
A      1  0.8898574771067  0.6025822289452  0.2505828376214 1.0
A      1  0.7769942826043  0.6013680900568  0.4135678018921 1.0
A      1  0.8900251013750  0.6011374591261  0.5839296882086 1.0
A      1  0.7771542635664  0.5991301097842  0.7498033341093 1.0
A      1  0.8889953030623  0.6002467682406  0.9168112233776 1.0
A      1  0.6117057117679  0.7013422609093  0.0850616123729 1.0
A      1  0.7224018127509  0.7036877383091  0.2503316623849 1.0
A      1  0.6101951209098  0.7045792269603  0.4186716748928 1.0
A      1  0.7221248550000  0.7027423365307  0.5841810612401 1.0
A      1  0.6110911212755  0.7032607749305  0.7527051539680 1.0
A      1  0.7220551065807  0.7007547781095  0.9169602565908 1.0
A      1  0.4444737355967  0.8006017875366  0.0851326267387 1.0
A      1  0.5556054184283  0.8018534735773  0.2511396171789 1.0
A      1  0.4449035252230  0.7986454229706  0.4186135207764 1.0
A      1  0.5550599279970  0.8018541407591  0.5857385224931 1.0
A      1  0.4439662398775  0.8005500393770  0.7515176521561 1.0
A      1  0.5549798051475  0.8011828679254  0.9187520101037 1.0
A      1  0.2777456284737  0.9001250768672  0.0851743831542 1.0
A      1  0.3884820740455  0.8997662487644  0.2519251531599 1.0
A      1  0.2777972947172  0.8995130314495  0.4182482477407 1.0
A      1  0.3881596325875  0.8995527160644  0.5850292731080 1.0
A      1  0.2773663962861  0.8999704594208  0.7520622217337 1.0
A      1  0.3882192246891  0.9000493889795  0.9183974414369 1.0
A      1  0.1110803253430  0.0000514906975  0.0848665337245 1.0
A      1  0.2215667788117  0.9995415587715  0.2515018811811 1.0
A      1  0.1107783568811  0.9990089880429  0.4183602806625 1.0
A      1  0.2216467112349  0.9987853795317  0.5854225368299 1.0
A      1  0.1108122339563  0.9996166775467  0.7519081762140 1.0
A      1  0.2215763913488  0.9996566527862  0.9188042015250 1.0
A      1  0.7782842963757  0.8013429463636  0.0839234154268 1.0
A      1  0.8891937536455  0.8010726198829  0.2509047388459 1.0
A      1  0.7782738250963  0.8008582604957  0.4177272425384 1.0
A      1  0.8889162088161  0.8005355709346  0.5845907120951 1.0
A      1  0.7781897171563  0.8003023525343  0.7512140103563 1.0
A      1  0.8887797701887  0.8002943851685  0.9177899721347 1.0
A      1  0.6115613814778  0.9004108905121  0.0847958251469 1.0
A      1  0.7223973391301  0.9008371533558  0.2512062381326 1.0
A      1  0.6114321627357  0.9006053861249  0.4183197913451 1.0
A      1  0.7221250095198  0.9003059053452  0.5848908214014 1.0
A      1  0.6113192930038  0.9003742457930  0.7519332029088 1.0
A      1  0.7221140429874  0.9003157850326  0.9177763746594 1.0
A      1  0.4445010504224  0.9992557084939  0.0848521155509 1.0
A      1  0.5553686846625  0.9997856850161  0.2514962237399 1.0
A      1  0.4443891550494  0.9985219004981  0.4187001276684 1.0
A      1  0.5548210536105  0.9996111711090  0.5854293836888 1.0
A      1  0.4441043475056  0.9992485577496  0.7517865077464 1.0
A      1  0.5550968753463  0.9995449819320  0.9187113046432 1.0
A      1  0.7782329315506  0.9999363274036  0.0842664859071 1.0
A      1  0.8891778712846  0.9998116845820  0.2511183828562 1.0
A      1  0.7784491553919  0.9993660399252  0.4179511719544 1.0
A      1  0.8890943235848  0.9995292850870  0.5847968590165 1.0
A      1  0.7782456471510  0.9999441961199  0.7515054265757 1.0
A      1  0.8887965610762  0.0000987984914  0.9180507364401 1.0
END
