TITL AB-20764-5019-331 0.0000000000 4458.8459578500 -1502.5838791751 0 0  183 (P1) n - 1
REM
REM Run started: at Fri Oct 6 15:31:44 BST 2023 in /home/michal/install/eddp/airss/examples/1.11
REM pp3 from code version ## 0.9.3 July 2022 commit b0220bf5cbf550a3b7
REM
REM
REM
REM Total runtime: s
REM
REM
REM ./AB.cell (a186c3e4acc5915692489c59fabd1559)
REM ## AIRSS Version 0.9.3 July 2022 commit b0220bf5cbf550a3b7
REM compiler GCC version 11.4.0
REM options -cpp -imultiarch x86_64-linux-gnu -mtune=generic -march=x86-64 -g -Og -fpre-include=/usr/include/finclude/math-vector-fortran.h
REM cmdline: airss.pl -pp3 max 100 -seed AB 
REM seed 1279496257 -2032795920 1567232355 264084780 -316979085 1173215286 -1734844211 -1755337782
REM
REM AB.pp (46f9ffe235eb1beff4ce53cde2d82919)
REM 
CELL 1.54180   16.99142   16.35000   16.05000   90.00000   90.00000   90.00000
LATT -1
SFAC A  B  
A      1  0.9444618234158  0.0996266289526  0.0826994129621 1.0
A      1  0.0551404125170  0.0995846389797  0.2491282785901 1.0
A      1  0.5525613176024  0.5988533233069  0.5836955973021 1.0
A      1  0.4026515763987  0.4762812481263  0.5412445646331 1.0
A      1  0.4443166493198  0.6107160680372  0.4113081599743 1.0
A      1  0.5640057401279  0.3973422712014  0.5845204744341 1.0
A      1  0.6182495176276  0.5032509567106  0.4199027199988 1.0
B      2  0.3474904498446  0.5742832556579  0.6481145795257 1.0
B      2  0.4803114184152  0.4589821234726  0.3796310002372 1.0
B      2  0.3778074975549  0.3968862093864  0.3801699141632 1.0
B      2  0.4711690099825  0.3535317424610  0.4561430230765 1.0
A      1  0.9437345758826  0.0992013067262  0.4159756835518 1.0
A      1  0.0548646992535  0.0988477394823  0.5831650784297 1.0
A      1  0.9444396998709  0.0990443878595  0.7497732344018 1.0
A      1  0.0555511515509  0.0990769301919  0.9163776518091 1.0
A      1  0.2778158072817  0.0995390012851  0.0826041606543 1.0
A      1  0.3885377888802  0.1001118666416  0.2486527677510 1.0
A      1  0.2769724104181  0.0987501570387  0.4163724521064 1.0
A      1  0.3887114577403  0.0978886888035  0.5827486573946 1.0
A      1  0.2781903711859  0.0986664058865  0.7496676627301 1.0
A      1  0.3890514255479  0.0999355706524  0.9160445998853 1.0
A      1  0.1112249630482  0.1995658470105  0.0830625399596 1.0
A      1  0.2219219375081  0.1994345573171  0.2498091369655 1.0
A      1  0.1086921685478  0.1980640278953  0.4163575339468 1.0
A      1  0.2202752438737  0.1978092936908  0.5845839401728 1.0
A      1  0.1105536514886  0.1985209588014  0.7503645576533 1.0
A      1  0.2222859720338  0.1988355246062  0.9166192107642 1.0
A      1  0.9445243047170  0.2994763747492  0.0831070334532 1.0
A      1  0.0557001218750  0.2995326962956  0.2499321089769 1.0
A      1  0.9442504770722  0.2993785909902  0.4164009532124 1.0
A      1  0.0565790255374  0.2994968508777  0.5830010594775 1.0
A      1  0.9442352782912  0.2988776268595  0.7496498410095 1.0
A      1  0.0552280238328  0.2988829516096  0.9167437491046 1.0
A      1  0.6113052352088  0.0998670346962  0.0825696938718 1.0
A      1  0.7222672039428  0.0998383386897  0.2492053524221 1.0
A      1  0.6111757200399  0.1007512061845  0.4156544043495 1.0
A      1  0.7225667414159  0.0995124719916  0.5826481041035 1.0
A      1  0.6114248329069  0.0997274933877  0.7492156832946 1.0
A      1  0.7223296471102  0.0995989466472  0.9160694701003 1.0
A      1  0.4445749561798  0.2000844353650  0.0823080350446 1.0
A      1  0.5558309808533  0.1996612969481  0.2489706410961 1.0
A      1  0.4430771070142  0.1998684168937  0.4146783511062 1.0
A      1  0.5560475156967  0.1995672674535  0.5818454291763 1.0
A      1  0.4451392194197  0.1996551423799  0.7501547594938 1.0
A      1  0.5557945998733  0.1996707990760  0.9163807360993 1.0
A      1  0.2782160207183  0.2992391707631  0.0835445456707 1.0
A      1  0.3893444423293  0.2995657125588  0.2496199816962 1.0
A      1  0.2713237717998  0.2952831655833  0.4197690259842 1.0
A      1  0.3871944937345  0.2918241589286  0.5842621752137 1.0
A      1  0.2770199690423  0.2978323512898  0.7503126316136 1.0
A      1  0.3891418305684  0.3006042446917  0.9150026063040 1.0
A      1  0.1108728881081  0.3994878274132  0.0838334211094 1.0
A      1  0.2227660341835  0.3990865756940  0.2502333736580 1.0
A      1  0.1094033499177  0.3997545768025  0.4166892574865 1.0
A      1  0.2251069285685  0.4024009630054  0.5837466924791 1.0
A      1  0.1095312629107  0.3979810282648  0.7496875440103 1.0
A      1  0.2211533100689  0.3976806678394  0.9192503785441 1.0
A      1  0.9445077760066  0.4996049931236  0.0827636434648 1.0
A      1  0.0559048001585  0.4997946212810  0.2492332140963 1.0
A      1  0.9440173631050  0.4999369762367  0.4160778577882 1.0
A      1  0.0551158577441  0.4993653682445  0.5826483151053 1.0
A      1  0.9445038346063  0.4995371839758  0.7497099251999 1.0
A      1  0.0559521846553  0.4991921770862  0.9159754157061 1.0
A      1  0.7778958010458  0.1996481849651  0.0827267020517 1.0
A      1  0.8890580703633  0.1996812544085  0.2494231806155 1.0
A      1  0.7781640960994  0.1995558122311  0.4158723901949 1.0
A      1  0.8898573746307  0.1990879013620  0.5829082723938 1.0
A      1  0.7780506608404  0.1991825029959  0.7497606223941 1.0
A      1  0.8888878002969  0.1993362272995  0.9163184181002 1.0
A      1  0.6112812608029  0.2999191150961  0.0825203801856 1.0
A      1  0.7229919428800  0.2997869541397  0.2491145304885 1.0
A      1  0.6129577965272  0.3007718434359  0.4149010988969 1.0
A      1  0.7251372166464  0.2984082180759  0.5829949420876 1.0
A      1  0.6113490688747  0.2992045849462  0.7503289563273 1.0
A      1  0.7223843019524  0.2996705141043  0.9163949765659 1.0
A      1  0.4446082020686  0.3999654942692  0.0831495284449 1.0
A      1  0.5561180076744  0.3991971790917  0.2498391155590 1.0
A      1  0.4427891040182  0.4032144628623  0.7428039158040 1.0
A      1  0.5550943590636  0.4000851095536  0.9150982874961 1.0
A      1  0.2776110860840  0.4997786425994  0.0831172839166 1.0
A      1  0.3881032721062  0.5015459770697  0.2492550298451 1.0
A      1  0.2692909217612  0.5054107842830  0.4114902837577 1.0
A      1  0.2727824205015  0.4945120003264  0.7570305396257 1.0
A      1  0.3891583751034  0.4996929139539  0.9169756483109 1.0
A      1  0.1104448398166  0.5997682606967  0.0820315927818 1.0
A      1  0.2209268496288  0.6019904291053  0.2467164117146 1.0
A      1  0.1068669727580  0.6020967938550  0.4139104065060 1.0
A      1  0.2160675982904  0.6021681489011  0.5777293463802 1.0
A      1  0.1109580685720  0.5994566073066  0.7488090576845 1.0
A      1  0.2220492461988  0.5999887603895  0.9168706873165 1.0
A      1  0.9442381915004  0.6999444653174  0.0823144642694 1.0
A      1  0.0548193773347  0.7009816249147  0.2480909641206 1.0
A      1  0.9436042044939  0.7013286992347  0.4155672068161 1.0
A      1  0.0537387397141  0.7011222813392  0.5823635576740 1.0
A      1  0.9447566021108  0.6998727093783  0.7496266175551 1.0
A      1  0.0556970410823  0.6995442411496  0.9155940560376 1.0
A      1  0.7782131366974  0.3996269874800  0.0830567051026 1.0
A      1  0.8895314864459  0.3997360230633  0.2495400051243 1.0
A      1  0.7793702998892  0.3996412508294  0.4166700981057 1.0
A      1  0.8901698286861  0.3993590705877  0.5832415719482 1.0
A      1  0.7784071012652  0.3991302883876  0.7499815513692 1.0
A      1  0.8893365233296  0.3993277468868  0.9163490613432 1.0
A      1  0.6115939741455  0.4992848014625  0.0836671072786 1.0
A      1  0.7231600819996  0.4997035895224  0.2500265325731 1.0
A      1  0.7253345651059  0.5005664768118  0.5846259502389 1.0
A      1  0.6132778740844  0.4997920418935  0.7504154296092 1.0
A      1  0.7231494916926  0.4993719098811  0.9168271029809 1.0
A      1  0.4447560048406  0.6001357162961  0.0831149319713 1.0
A      1  0.5562497979521  0.5990492577008  0.2502322049205 1.0
A      1  0.4514954421563  0.6018145556232  0.7568671678838 1.0
A      1  0.5580267438562  0.5999318915747  0.9192127074549 1.0
A      1  0.2775669249371  0.7004026792258  0.0816001595244 1.0
A      1  0.3879806469414  0.7023356435586  0.2466188400551 1.0
A      1  0.2762604611079  0.7027967201540  0.4136862392025 1.0
A      1  0.3903560412685  0.7064072616553  0.5776849811846 1.0
A      1  0.2797408859791  0.6965216169203  0.7471467749519 1.0
A      1  0.3890669486418  0.7002907020841  0.9168040690080 1.0
A      1  0.1110859423177  0.7998924620873  0.0816936993968 1.0
A      1  0.2213486328276  0.8014157634497  0.2480881557285 1.0
A      1  0.1103504743090  0.8008249776398  0.4154756822252 1.0
A      1  0.2217920271386  0.8004270379911  0.5821590786662 1.0
A      1  0.1119489366208  0.7989898700422  0.7488584610286 1.0
A      1  0.2226243806175  0.7993068234463  0.9146285116214 1.0
A      1  0.9444890836652  0.8998207623258  0.0824273884277 1.0
A      1  0.0549305490324  0.9002686329740  0.2488566612272 1.0
A      1  0.9439947165042  0.9002070963381  0.4158961587399 1.0
A      1  0.0550215169060  0.8997749199030  0.5826619138068 1.0
A      1  0.9448834133238  0.8994782175030  0.7493491758167 1.0
A      1  0.0557900044891  0.8993485543873  0.9156406195332 1.0
A      1  0.7779225723281  0.5997483647896  0.0831349144121 1.0
A      1  0.8894862241232  0.5999452372151  0.2491467398876 1.0
A      1  0.7800075239022  0.6014382511677  0.4162725177312 1.0
A      1  0.8897216190657  0.6001803051032  0.5830463692525 1.0
A      1  0.7789615953398  0.6000863972280  0.7503870637092 1.0
A      1  0.8895148882783  0.5994825815049  0.9164413658237 1.0
A      1  0.6115589000006  0.7001192400033  0.0837471762952 1.0
A      1  0.7225460458981  0.6998044566224  0.2497786394650 1.0
A      1  0.6120920113483  0.7017346142750  0.4165160771852 1.0
A      1  0.7220856062508  0.6993339906731  0.5828546980510 1.0
A      1  0.6134569611272  0.7006803457128  0.7495928981585 1.0
A      1  0.7232166837498  0.6999070276916  0.9166716523117 1.0
A      1  0.4449714610913  0.8006030372769  0.0819079422871 1.0
A      1  0.5556659831140  0.7999217204626  0.2490772499913 1.0
A      1  0.4450544652525  0.8050880733477  0.4137784625331 1.0
A      1  0.5565680113715  0.8005761017004  0.5823772775782 1.0
A      1  0.4450924349869  0.7998993990967  0.7487146383848 1.0
A      1  0.5560565079372  0.7995661402943  0.9158105190591 1.0
A      1  0.2778852935478  0.8998993175400  0.0816999854347 1.0
A      1  0.3884319259948  0.9012583339406  0.2480186003133 1.0
A      1  0.2775240698460  0.9007722807907  0.4154923231994 1.0
A      1  0.3890805221458  0.9015894583721  0.5822087703182 1.0
A      1  0.2783848261199  0.8986102162896  0.7488230032551 1.0
A      1  0.3892694343240  0.8999061609912  0.9154654992664 1.0
A      1  0.1111670394398  0.9996272749089  0.0823983150823 1.0
A      1  0.2216850520803  0.0002199441871  0.2489340070589 1.0
A      1  0.1105138387319  0.9995331375873  0.4159049891391 1.0
A      1  0.2215501580256  0.9991731375396  0.5828442597521 1.0
A      1  0.1114292513629  0.9990007554529  0.7494662531904 1.0
A      1  0.2224274477688  0.9992145337089  0.9157049057486 1.0
A      1  0.7778778398670  0.7999566724592  0.0827997529643 1.0
A      1  0.8884884494205  0.8001951185190  0.2490442457631 1.0
A      1  0.7776663982761  0.8008419025891  0.4160689382077 1.0
A      1  0.8881904803637  0.8000353171351  0.5827468002621 1.0
A      1  0.7784766678864  0.8001008712420  0.7494861947732 1.0
A      1  0.8892073711638  0.7997310670191  0.9160422865412 1.0
A      1  0.6113214642604  0.9000194165233  0.0824543695415 1.0
A      1  0.7220579508717  0.8999507772433  0.2491245953639 1.0
A      1  0.6116203558433  0.9012790034579  0.4156925928861 1.0
A      1  0.7223300924481  0.8998466290172  0.5827833642275 1.0
A      1  0.6115139406618  0.9000709409009  0.7493500527830 1.0
A      1  0.7224486915753  0.8996833272067  0.9160269259616 1.0
A      1  0.4446935411685  0.0002380298312  0.0820704177233 1.0
A      1  0.5554908546334  0.9999876916445  0.2489470647018 1.0
A      1  0.4446547983963  0.0016268917250  0.4152444934475 1.0
A      1  0.5559857157349  0.0000794885657  0.5824146944371 1.0
A      1  0.4449673251948  0.9997081513801  0.7494823440943 1.0
A      1  0.5558501744974  0.9997557714081  0.9158913919415 1.0
A      1  0.7778490469816  0.9998016502355  0.0825696318485 1.0
A      1  0.8885261001669  0.9998439060759  0.2491231353133 1.0
A      1  0.7776025794846  0.0001319966741  0.4159089887320 1.0
A      1  0.8886063182330  0.9994742695139  0.5828378101543 1.0
A      1  0.7779904630128  0.9996005556680  0.7494819576446 1.0
A      1  0.8889687695574  0.9994411360915  0.9160659632483 1.0
END
