TITL AB-20764-5019-493 0.0000000000 4458.8459578500 -1501.0772370634 0 0  183 (P1) n - 1
REM
REM Run started: at Fri Oct 6 15:37:43 BST 2023 in /home/michal/install/eddp/airss/examples/1.11
REM pp3 from code version ## 0.9.3 July 2022 commit b0220bf5cbf550a3b7
REM
REM
REM
REM Total runtime: s
REM
REM
REM ./AB.cell (a186c3e4acc5915692489c59fabd1559)
REM ## AIRSS Version 0.9.3 July 2022 commit b0220bf5cbf550a3b7
REM compiler GCC version 11.4.0
REM options -cpp -imultiarch x86_64-linux-gnu -mtune=generic -march=x86-64 -g -Og -fpre-include=/usr/include/finclude/math-vector-fortran.h
REM cmdline: airss.pl -pp3 max 100 -seed AB 
REM seed 1371260659 349057189 275326115 -1953094403 322291239 1762445540 722066276 1149468949
REM
REM AB.pp (46f9ffe235eb1beff4ce53cde2d82919)
REM 
CELL 1.54180   16.99142   16.35000   16.05000   90.00000   90.00000   90.00000
LATT -1
SFAC A  B  
A      1  0.9459416304295  0.1007332489063  0.0833891314416 1.0
A      1  0.0570012191525  0.1003812378601  0.2501272904689 1.0
A      1  0.4483911582717  0.6020469533732  0.4134404773260 1.0
A      1  0.4440280108117  0.4039298808752  0.4221791553793 1.0
A      1  0.5693329252271  0.5985890817132  0.5702357961538 1.0
A      1  0.5589344160943  0.3980653374211  0.5824246869206 1.0
A      1  0.6147407656015  0.4978652446524  0.4119072224642 1.0
B      2  0.4579841953990  0.5104996286719  0.6291366673622 1.0
B      2  0.3549813835909  0.4453072852761  0.6266551307414 1.0
B      2  0.5026050717617  0.6954267897404  0.6678417564781 1.0
B      2  0.3700919611990  0.5389623637322  0.5402621319201 1.0
A      1  0.9462950684871  0.1005245121359  0.4166015156258 1.0
A      1  0.0571149026453  0.0998666712253  0.5834496846426 1.0
A      1  0.9458842828378  0.1008857746124  0.7501830958547 1.0
A      1  0.0566772581973  0.1007193563260  0.9168931309419 1.0
A      1  0.2792091689636  0.1005987856761  0.0838054482259 1.0
A      1  0.3902381143686  0.1008212253105  0.2506144956390 1.0
A      1  0.2795052387171  0.1000450975011  0.4169975786485 1.0
A      1  0.3903535356859  0.0989616847399  0.5835144180354 1.0
A      1  0.2791200137065  0.1010923963031  0.7504211093356 1.0
A      1  0.3901673299065  0.1010140145983  0.9174302587494 1.0
A      1  0.1125572755440  0.2005042349562  0.0834253994787 1.0
A      1  0.2235458515100  0.2001988974251  0.2503210256430 1.0
A      1  0.1125639022957  0.2001246197985  0.4167497191677 1.0
A      1  0.2232741698744  0.1990397405099  0.5835116715659 1.0
A      1  0.1123407742382  0.2006134957937  0.7501670612884 1.0
A      1  0.2232720364975  0.2006073654952  0.9168262483393 1.0
A      1  0.9456042420195  0.3003870300082  0.0831999844531 1.0
A      1  0.0565929257549  0.2998479502694  0.2497289703806 1.0
A      1  0.9454969460250  0.2998437370299  0.4163022778980 1.0
A      1  0.0552198799884  0.2986837585519  0.5832780798607 1.0
A      1  0.9450450109765  0.3002055467778  0.7502636820015 1.0
A      1  0.0562285388159  0.3002483770450  0.9168903331982 1.0
A      1  0.6126241293141  0.1008675806326  0.0831553579881 1.0
A      1  0.7236337109928  0.1005647521260  0.2497618593233 1.0
A      1  0.6128286034236  0.1009890948091  0.4164444343867 1.0
A      1  0.7240816520001  0.1005182947661  0.5832654381217 1.0
A      1  0.6128620554384  0.1006335631456  0.7503648866222 1.0
A      1  0.7235299120250  0.1006315684703  0.9167961626771 1.0
A      1  0.4458261975496  0.2006236025801  0.0842328463435 1.0
A      1  0.5569662962048  0.2005099440571  0.2498104741983 1.0
A      1  0.4461596685567  0.2006207990353  0.4167702403237 1.0
A      1  0.5575502321849  0.1997404530299  0.5836749387702 1.0
A      1  0.4459898085914  0.2000877646463  0.7504820167485 1.0
A      1  0.5568480679284  0.2008572355403  0.9168621356727 1.0
A      1  0.2792027408644  0.3003296139663  0.0842285879052 1.0
A      1  0.3902352555436  0.3009808415772  0.2518982307075 1.0
A      1  0.2788369263373  0.2997252220009  0.4168767606083 1.0
A      1  0.3908391770590  0.2966921287695  0.5830821707193 1.0
A      1  0.2789477841968  0.3011124168187  0.7493007043350 1.0
A      1  0.3897758954755  0.2996063432262  0.9177978638134 1.0
A      1  0.1119417180642  0.4002345670364  0.0837223258550 1.0
A      1  0.2229378041704  0.3997033359602  0.2501134453955 1.0
A      1  0.1106291658728  0.3996859636307  0.4156580498039 1.0
A      1  0.2178842267239  0.3970876998546  0.5811464107736 1.0
A      1  0.1110371748640  0.3996849304871  0.7501886769133 1.0
A      1  0.2224220534166  0.3994362075735  0.9180691721035 1.0
A      1  0.9457821194274  0.5003201108099  0.0833591949675 1.0
A      1  0.0567172124419  0.5003124469517  0.2499496708122 1.0
A      1  0.9451422638755  0.5002433156474  0.4165455179615 1.0
A      1  0.0557605018583  0.4998436882233  0.5833708047796 1.0
A      1  0.9457920238624  0.5000012505541  0.7501060225626 1.0
A      1  0.0570649647119  0.5003584926633  0.9168738663822 1.0
A      1  0.7791189860153  0.2006511673041  0.0832981541554 1.0
A      1  0.8901066500470  0.2002999164430  0.2498141645377 1.0
A      1  0.7792567565205  0.2003322075299  0.4162677584533 1.0
A      1  0.8900707379680  0.1997196293190  0.5832544928344 1.0
A      1  0.7790251068498  0.2006279624357  0.7501390630562 1.0
A      1  0.8898939968027  0.2004827990832  0.9168131470846 1.0
A      1  0.6125391279352  0.3005844799173  0.0833104294268 1.0
A      1  0.7234829335371  0.3006066160074  0.2496881413627 1.0
A      1  0.6122071014716  0.2998790150791  0.4161818209706 1.0
A      1  0.7243671048511  0.2995691019183  0.5830098445650 1.0
A      1  0.6127467225508  0.3009610076766  0.7502054740959 1.0
A      1  0.7234342646263  0.3006483453717  0.9167194956892 1.0
A      1  0.4459601054650  0.3997996744934  0.0851383744125 1.0
A      1  0.5562257754825  0.4000739852624  0.2501900435644 1.0
A      1  0.4460419651549  0.3981452187076  0.7528596790580 1.0
A      1  0.5569431610795  0.4011896640898  0.9169121936612 1.0
A      1  0.2781381011158  0.5002945588414  0.0852256924099 1.0
A      1  0.3900736617112  0.5004494686217  0.2509162160822 1.0
A      1  0.2768258355003  0.4992413385210  0.4152725143361 1.0
A      1  0.2749536660669  0.4998437371543  0.7538702973333 1.0
A      1  0.3883426568587  0.4976727719177  0.9225952625455 1.0
A      1  0.1119052681103  0.6004702244711  0.0836018197631 1.0
A      1  0.2229395468456  0.6002555383796  0.2498407993284 1.0
A      1  0.1115605493450  0.5999082564058  0.4169857390368 1.0
A      1  0.2234496843428  0.5960572381369  0.5842762711339 1.0
A      1  0.1116001469086  0.6006457586505  0.7505012275422 1.0
A      1  0.2235206117360  0.6009531211374  0.9180872969193 1.0
A      1  0.9458265149616  0.7006205958490  0.0836151423160 1.0
A      1  0.0571132424672  0.7005280345580  0.2502252647838 1.0
A      1  0.9459082382229  0.7005370209477  0.4167553904955 1.0
A      1  0.0577166793438  0.6998890624703  0.5835068546155 1.0
A      1  0.9464966145413  0.7007184986746  0.7502416026644 1.0
A      1  0.0573160645738  0.7007436231741  0.9171192302712 1.0
A      1  0.7791935433851  0.4004123687368  0.0827019506012 1.0
A      1  0.8904920436605  0.4001924795343  0.2495982282408 1.0
A      1  0.7798593832158  0.3996047968283  0.4159845774845 1.0
A      1  0.8908776743433  0.3994910801318  0.5833625040585 1.0
A      1  0.7783891757794  0.4005675190392  0.7500932858177 1.0
A      1  0.8899786022201  0.4006372254329  0.9165509680295 1.0
A      1  0.6127283963988  0.5002518306955  0.0834706883283 1.0
A      1  0.7247242970005  0.5003878294459  0.2487831280437 1.0
A      1  0.7273772714799  0.4986409637510  0.5828281120351 1.0
A      1  0.6098993670883  0.5034623843310  0.7470345021981 1.0
A      1  0.7231728270327  0.5010856850435  0.9157223716045 1.0
A      1  0.4456758935074  0.6004991505444  0.0847598131080 1.0
A      1  0.5579558817687  0.6007525662284  0.2486025351143 1.0
A      1  0.4379147674866  0.5955634874893  0.7637258552469 1.0
A      1  0.5571533487045  0.6009858851476  0.9188434925416 1.0
A      1  0.2784259928752  0.7007248719770  0.0846112400320 1.0
A      1  0.3901379186535  0.7010011008389  0.2497074458510 1.0
A      1  0.2774940814665  0.6992649072823  0.4146607694762 1.0
A      1  0.3832356275179  0.6985116365446  0.5773517443108 1.0
A      1  0.2783715553354  0.7012440000147  0.7501705497074 1.0
A      1  0.3892257891118  0.7020047624884  0.9208570741681 1.0
A      1  0.1122674683969  0.8006764557614  0.0836671816599 1.0
A      1  0.2234014864452  0.8009023221969  0.2502553647077 1.0
A      1  0.1122102089252  0.8004129043182  0.4166933655203 1.0
A      1  0.2223670997239  0.8000611789360  0.5833559152670 1.0
A      1  0.1122872218333  0.8008412329366  0.7504639003564 1.0
A      1  0.2234776845502  0.8011892489208  0.9172581175846 1.0
A      1  0.9461911509129  0.9009649754940  0.0835895712132 1.0
A      1  0.0571927106753  0.9006985763621  0.2501824654211 1.0
A      1  0.9464273646515  0.9009141282569  0.4166884137042 1.0
A      1  0.0574473641325  0.9005280107008  0.5835204158739 1.0
A      1  0.9468569955669  0.9014234019934  0.7502803258135 1.0
A      1  0.0572990140497  0.9010097839851  0.9170593315140 1.0
A      1  0.7797200425710  0.6001063836491  0.0834843235953 1.0
A      1  0.8908109740288  0.6005177400385  0.2501373636971 1.0
A      1  0.7791630877452  0.6007137383892  0.4166830681529 1.0
A      1  0.8913555618287  0.6006785127700  0.5832349348551 1.0
A      1  0.7813654570677  0.5997891281707  0.7500913473045 1.0
A      1  0.8912456828151  0.6003856115230  0.9169157391644 1.0
A      1  0.6130586362168  0.7010004109113  0.0837579054130 1.0
A      1  0.7250708501474  0.7008211907250  0.2489563083644 1.0
A      1  0.6150140337186  0.7031382585395  0.4122530369577 1.0
A      1  0.7267107303310  0.7024095567174  0.5841313175619 1.0
A      1  0.6221446287736  0.7019572847008  0.7576760953569 1.0
A      1  0.7266376753906  0.7009378892224  0.9199606990068 1.0
A      1  0.4459342417019  0.8012754736800  0.0845511859153 1.0
A      1  0.5571973815035  0.8014027329155  0.2490482883553 1.0
A      1  0.4463121888038  0.8008176385885  0.4158262226307 1.0
A      1  0.5614588598431  0.8059291621397  0.5774399498769 1.0
A      1  0.4425512604111  0.8060345242944  0.7567810041048 1.0
A      1  0.5571108313761  0.8010964079418  0.9184237891718 1.0
A      1  0.2787991778323  0.9007711654371  0.0843184940385 1.0
A      1  0.3901866648726  0.9010644493831  0.2504752851539 1.0
A      1  0.2795255675171  0.8997746065244  0.4173634934373 1.0
A      1  0.3910650519642  0.8986571605869  0.5845793326228 1.0
A      1  0.2778615902927  0.9017680583592  0.7506728276949 1.0
A      1  0.3893202065098  0.9026354688003  0.9195657494794 1.0
A      1  0.1125531264369  0.0007776790051  0.0837430455330 1.0
A      1  0.2236972578543  0.0006023662827  0.2505881856512 1.0
A      1  0.1129758530320  0.0003412555512  0.4169044312752 1.0
A      1  0.2240315909464  0.9997994787564  0.5835855214239 1.0
A      1  0.1124882891394  0.0011587609243  0.7502637381168 1.0
A      1  0.2232068814601  0.0012727867535  0.9173028653777 1.0
A      1  0.7799691223330  0.8014143246798  0.0838550171916 1.0
A      1  0.8910686492206  0.8007876407880  0.2501662757035 1.0
A      1  0.7803547633629  0.8014486269109  0.4165365642622 1.0
A      1  0.8921170609576  0.8009749904019  0.5833590663934 1.0
A      1  0.7823715019598  0.8023017088471  0.7506376937671 1.0
A      1  0.8915703365982  0.8010582672563  0.9172184344501 1.0
A      1  0.6130102312290  0.9012481445549  0.0833984221339 1.0
A      1  0.7243136411797  0.9008375631726  0.2495656514267 1.0
A      1  0.6140219413551  0.9028275425110  0.4143820144270 1.0
A      1  0.7258485202386  0.9019581647966  0.5831887885767 1.0
A      1  0.6126490903321  0.9002762463026  0.7494404338471 1.0
A      1  0.7238276982602  0.9006024819938  0.9165725394018 1.0
A      1  0.4460506521095  0.0011583032379  0.0842169755859 1.0
A      1  0.5569426673838  0.0011597280812  0.2496451914958 1.0
A      1  0.4462224839355  0.0002852387087  0.4171374376527 1.0
A      1  0.5575255782570  0.0017263723059  0.5833492549912 1.0
A      1  0.4457984444546  0.0019116173444  0.7506250690068 1.0
A      1  0.5569136463745  0.0006704301560  0.9167030335094 1.0
A      1  0.7794702439457  0.0009907776791  0.0831761453157 1.0
A      1  0.8905647275869  0.0006559578163  0.2499016166344 1.0
A      1  0.7801252768928  0.0012419209766  0.4163628222160 1.0
A      1  0.8911296716614  0.0006888041758  0.5834708801368 1.0
A      1  0.7795148162159  0.0011668158385  0.7502371690420 1.0
A      1  0.8903587175494  0.0006916073471  0.9167909471993 1.0
END
