TITL AB-20764-5019-528 0.0000000000 4458.8459578500 -1500.9130139180 0 0  183 (P1) n - 1
REM
REM Run started: at Fri Oct 6 15:39:01 BST 2023 in /home/michal/install/eddp/airss/examples/1.11
REM pp3 from code version ## 0.9.3 July 2022 commit b0220bf5cbf550a3b7
REM
REM
REM
REM Total runtime: s
REM
REM
REM ./AB.cell (a186c3e4acc5915692489c59fabd1559)
REM ## AIRSS Version 0.9.3 July 2022 commit b0220bf5cbf550a3b7
REM compiler GCC version 11.4.0
REM options -cpp -imultiarch x86_64-linux-gnu -mtune=generic -march=x86-64 -g -Og -fpre-include=/usr/include/finclude/math-vector-fortran.h
REM cmdline: airss.pl -pp3 max 100 -seed AB 
REM seed -1082408803 1424220443 718905572 -1078863679 825563855 1369968564 956104805 746649230
REM
REM AB.pp (46f9ffe235eb1beff4ce53cde2d82919)
REM 
CELL 1.54180   16.99142   16.35000   16.05000   90.00000   90.00000   90.00000
LATT -1
SFAC A  B  
A      1  0.9424846256339  0.1013175104832  0.0827167074723 1.0
A      1  0.0530722727589  0.1008497336985  0.2492629591035 1.0
A      1  0.6158329940033  0.5033449982669  0.4117118607873 1.0
A      1  0.4412075574358  0.6071386396454  0.4139800346352 1.0
A      1  0.5575114503001  0.6074676954341  0.5731935929996 1.0
A      1  0.3881097894177  0.3029204507001  0.5856996130386 1.0
A      1  0.3760371915627  0.5053824725587  0.5778076935975 1.0
B      2  0.4790812374957  0.4614402760184  0.4622650216583 1.0
B      2  0.3772941918573  0.3966363929475  0.4523721491298 1.0
B      2  0.4712103692425  0.3628043254056  0.3767656732317 1.0
B      2  0.4978947741045  0.5004346441207  0.6647016504282 1.0
A      1  0.9420862470492  0.1006732912685  0.4161171949229 1.0
A      1  0.0536461019136  0.1009197725792  0.5832029160549 1.0
A      1  0.9425344363768  0.1010230603265  0.7497643719614 1.0
A      1  0.0533982029272  0.1013023330192  0.9163234280360 1.0
A      1  0.2760181321067  0.1013071996506  0.0831389653981 1.0
A      1  0.3867273427555  0.1021767634830  0.2506518287188 1.0
A      1  0.2752968209527  0.1004770294767  0.4164192261930 1.0
A      1  0.3865549887683  0.1020074527534  0.5832644156943 1.0
A      1  0.2756171815708  0.1010782747980  0.7501738118758 1.0
A      1  0.3868579083788  0.1009481990697  0.9170737385092 1.0
A      1  0.1088408294143  0.2012221597631  0.0827122065261 1.0
A      1  0.2190541429418  0.2000419772022  0.2485851471653 1.0
A      1  0.1066096467809  0.1996915759472  0.4162465436580 1.0
A      1  0.2201453725327  0.2009305009430  0.5833297643635 1.0
A      1  0.1087888195479  0.2008953902596  0.7497271431345 1.0
A      1  0.2198431836644  0.2009512174397  0.9168598516651 1.0
A      1  0.9429110099763  0.3013055372765  0.0828289196784 1.0
A      1  0.0537746961722  0.3010876486254  0.2494696773992 1.0
A      1  0.9421791848357  0.3010134988398  0.4162019221820 1.0
A      1  0.0536237468119  0.3009352116850  0.5828727676000 1.0
A      1  0.9432084392934  0.3009379062097  0.7495456555198 1.0
A      1  0.0541413861315  0.3014045805582  0.9161798897675 1.0
A      1  0.6092968308844  0.1016882924905  0.0830786238274 1.0
A      1  0.7201262450265  0.1018622526114  0.2494043736989 1.0
A      1  0.6089831407949  0.1020119581113  0.4160493643991 1.0
A      1  0.7209224414592  0.1007035238016  0.5828431957191 1.0
A      1  0.6097616960463  0.1009852862297  0.7501140673398 1.0
A      1  0.7203484543275  0.1014981681991  0.9164423430082 1.0
A      1  0.4427583035381  0.2012745700383  0.0844213475398 1.0
A      1  0.5532442807911  0.2024991650422  0.2500412177645 1.0
A      1  0.4412784596761  0.2052115163005  0.4182167103461 1.0
A      1  0.5543976562589  0.1984005836557  0.5833225009600 1.0
A      1  0.4425223168647  0.1993822190383  0.7506595039695 1.0
A      1  0.5535947767126  0.2014595557785  0.9166453778095 1.0
A      1  0.2753177262788  0.3012489093019  0.0840488121775 1.0
A      1  0.3857003202493  0.3014933300403  0.2509482278262 1.0
A      1  0.2686845359062  0.2966802012301  0.4142900889618 1.0
A      1  0.5611570459077  0.3918047980327  0.5780614329471 1.0
A      1  0.2741022214035  0.3001899544682  0.7503405417222 1.0
A      1  0.3859493697181  0.2994280429576  0.9202276128749 1.0
A      1  0.1092234387810  0.4014983810125  0.0828673662860 1.0
A      1  0.2196025818180  0.4013349399622  0.2494688810424 1.0
A      1  0.1068999083895  0.4014229979749  0.4159269329386 1.0
A      1  0.2187047005298  0.4002951894580  0.5816284168002 1.0
A      1  0.1092640489839  0.4014829040884  0.7495252347209 1.0
A      1  0.2207829053260  0.4014745051541  0.9167873863617 1.0
A      1  0.9428934407121  0.5016811997409  0.0828178659463 1.0
A      1  0.0541690345918  0.5018833784796  0.2493257852256 1.0
A      1  0.9423609325662  0.5019558707117  0.4159923330195 1.0
A      1  0.0534152826856  0.5016676731378  0.5828411156355 1.0
A      1  0.9432273115796  0.5014688976845  0.7497168764312 1.0
A      1  0.0543162989054  0.5014775335658  0.9163709615051 1.0
A      1  0.7762946118190  0.2012863439793  0.0826302216485 1.0
A      1  0.8873959702336  0.2012380529274  0.2493057871750 1.0
A      1  0.7767921431047  0.2006735982495  0.4158475818452 1.0
A      1  0.8882033736483  0.2005935358919  0.5829945981590 1.0
A      1  0.7763546534791  0.2007257645266  0.7499235648469 1.0
A      1  0.8872630907749  0.2014673911033  0.9162196624852 1.0
A      1  0.6099894843161  0.3011475699410  0.0828593457133 1.0
A      1  0.7219610557980  0.3015575693255  0.2489020151470 1.0
A      1  0.6122443736502  0.3004770835775  0.4139156478690 1.0
A      1  0.7241611585343  0.2992239118302  0.5829346299212 1.0
A      1  0.6095544394114  0.3012319451293  0.7498670598072 1.0
A      1  0.7207834957915  0.3015957596622  0.9161322980264 1.0
A      1  0.4427466160743  0.4014137374903  0.0848897437762 1.0
A      1  0.5570512154004  0.4027851845828  0.2471623719871 1.0
A      1  0.4386940395388  0.3946091053527  0.7581545997634 1.0
A      1  0.5540417728639  0.4012658888538  0.9183417739095 1.0
A      1  0.2764286887495  0.5014430607287  0.0847560638419 1.0
A      1  0.3890244255134  0.4987731989083  0.2556021289399 1.0
A      1  0.2700941257415  0.5042827564528  0.4137639143411 1.0
A      1  0.2757779239286  0.5014832967634  0.7495389182609 1.0
A      1  0.3868827024402  0.5015685022004  0.9187627246855 1.0
A      1  0.1093685747217  0.6016115983399  0.0827852414439 1.0
A      1  0.2205181477457  0.6024214336239  0.2489483218355 1.0
A      1  0.1071343213716  0.6029052050915  0.4158478213140 1.0
A      1  0.2166008088464  0.6040963169434  0.5831525628541 1.0
A      1  0.1088151599757  0.6016688937298  0.7501308057345 1.0
A      1  0.2207587908277  0.6015205593663  0.9166796341660 1.0
A      1  0.9430141810367  0.7020082099109  0.0827071883301 1.0
A      1  0.0539194245482  0.7021423238723  0.2492456226794 1.0
A      1  0.9424520722642  0.7026021194819  0.4160443214128 1.0
A      1  0.0526267482755  0.7025734168161  0.5831208667517 1.0
A      1  0.9428657878843  0.7019799949658  0.7496763822664 1.0
A      1  0.0540519007379  0.7017471425587  0.9163716748823 1.0
A      1  0.7768601292754  0.4011251714582  0.0829481505508 1.0
A      1  0.8883377388836  0.4015056103293  0.2494202762182 1.0
A      1  0.7775488322315  0.4013462978549  0.4161616671901 1.0
A      1  0.8880205567547  0.4015594372052  0.5828685730123 1.0
A      1  0.7782286811737  0.4003685557483  0.7497752332390 1.0
A      1  0.8882330845477  0.4012521880694  0.9163774245844 1.0
A      1  0.6103258931115  0.5022332276473  0.0826688532094 1.0
A      1  0.7233016615459  0.5022436688163  0.2477821645253 1.0
A      1  0.7207811012882  0.5014649432268  0.5834711638291 1.0
A      1  0.6171641513035  0.5010144536083  0.7564738787020 1.0
A      1  0.7231235069782  0.5014923490131  0.9187223175938 1.0
A      1  0.4424786309467  0.6011907234183  0.0849184578424 1.0
A      1  0.5544736513162  0.6025147602751  0.2488550552077 1.0
A      1  0.4384127287728  0.6081186957712  0.7564799509081 1.0
A      1  0.5537159939876  0.6016937181370  0.9176101104900 1.0
A      1  0.2754392282037  0.7019219563298  0.0833918031837 1.0
A      1  0.3865597856789  0.7024107025037  0.2490281990461 1.0
A      1  0.2749471366749  0.7030143919342  0.4166999611099 1.0
A      1  0.3869472107053  0.7026633274666  0.5840415114770 1.0
A      1  0.2740657278886  0.7029404054451  0.7502194097718 1.0
A      1  0.3860905439306  0.7033225303069  0.9194645223362 1.0
A      1  0.1092294932412  0.8018769831956  0.0829976758086 1.0
A      1  0.2201537070967  0.8021551552294  0.2497886579190 1.0
A      1  0.1089261449756  0.8021328383224  0.4163682714790 1.0
A      1  0.2199087689795  0.8026712258480  0.5832201512718 1.0
A      1  0.1087070001062  0.8020273490824  0.7497448310253 1.0
A      1  0.2198607475398  0.8020963681924  0.9166887755800 1.0
A      1  0.9425601389838  0.9017392738471  0.0827439523520 1.0
A      1  0.0534149483874  0.9016327582790  0.2494625758658 1.0
A      1  0.9425625073320  0.9018146783657  0.4160844528035 1.0
A      1  0.0534090311972  0.9018319089999  0.5830556772965 1.0
A      1  0.9423537412645  0.9015563156092  0.7496817646719 1.0
A      1  0.0533246765240  0.9016190238719  0.9163747915587 1.0
A      1  0.7769328833767  0.6025290682143  0.0826380138431 1.0
A      1  0.8882794787268  0.6021322720206  0.2492689211067 1.0
A      1  0.7776040687178  0.6030330278532  0.4159268222217 1.0
A      1  0.8875027632902  0.6016274104724  0.5828266309887 1.0
A      1  0.7779954323345  0.6022626799120  0.7496306327436 1.0
A      1  0.8881462456748  0.6017967713724  0.9162834932290 1.0
A      1  0.6095401191716  0.7021590360785  0.0826596031776 1.0
A      1  0.7213123383707  0.7020507830114  0.2485260337678 1.0
A      1  0.6109305100392  0.7048568986172  0.4126952926557 1.0
A      1  0.7219708367621  0.7026406763822  0.5822049666446 1.0
A      1  0.6086149567317  0.7002272576172  0.7478406737760 1.0
A      1  0.7202827136027  0.7013057388425  0.9155498964500 1.0
A      1  0.4427934674672  0.8021346546834  0.0834244111054 1.0
A      1  0.5534451781124  0.8026125998640  0.2487716921865 1.0
A      1  0.4426512760187  0.8037974667563  0.4162891022962 1.0
A      1  0.5538377011919  0.8032777920051  0.5823714315342 1.0
A      1  0.4422555645479  0.8036065045036  0.7500493574896 1.0
A      1  0.5536345161746  0.8013213722850  0.9158031863818 1.0
A      1  0.2759915484740  0.9016251562920  0.0831720618837 1.0
A      1  0.3868222467868  0.9024109738720  0.2499216350385 1.0
A      1  0.2758133508603  0.9019853959342  0.4164397109236 1.0
A      1  0.3866073060262  0.9024093608182  0.5830461652177 1.0
A      1  0.2755992703869  0.9020224171856  0.7500304097285 1.0
A      1  0.3868505054502  0.9020717303728  0.9168140667590 1.0
A      1  0.1092401386990  0.0015108587968  0.0829149459385 1.0
A      1  0.2200307394866  0.0013164321031  0.2495695269732 1.0
A      1  0.1089747401323  0.0011040827581  0.4162490726444 1.0
A      1  0.2200151553596  0.0016720907370  0.5832713072952 1.0
A      1  0.1090270656748  0.0013806373788  0.7498935083395 1.0
A      1  0.2199983271230  0.0014863465993  0.9166433434871 1.0
A      1  0.7760788592826  0.8019977991993  0.0823357591695 1.0
A      1  0.8871502480150  0.8019313193943  0.2491191665867 1.0
A      1  0.7764973215955  0.8027963814954  0.4156470897163 1.0
A      1  0.8870941163122  0.8020283151115  0.5829272020954 1.0
A      1  0.7757094333713  0.8015382711998  0.7494852830645 1.0
A      1  0.8869503492372  0.8015153115874  0.9160853940847 1.0
A      1  0.6092880572543  0.9019248188205  0.0825494027745 1.0
A      1  0.7201296478142  0.9018255361149  0.2491306581197 1.0
A      1  0.6093324782374  0.9030408317741  0.4157988044192 1.0
A      1  0.7204911960182  0.9017475077850  0.5827013118107 1.0
A      1  0.6094595788049  0.9012003872007  0.7496466077243 1.0
A      1  0.7202627157223  0.9014790290170  0.9161244083437 1.0
A      1  0.4426274557691  0.0017705088233  0.0834806806012 1.0
A      1  0.5534897413843  0.0022870138755  0.2494831071422 1.0
A      1  0.4425726352182  0.0033023304525  0.4166594548737 1.0
A      1  0.5536336038188  0.0012400400075  0.5831876814646 1.0
A      1  0.4426610660275  0.0015761676513  0.7498198443316 1.0
A      1  0.5536364208943  0.0014564199998  0.9163873933514 1.0
A      1  0.7758315975498  0.0016380992964  0.0827917978290 1.0
A      1  0.8865931758962  0.0014689498527  0.2493144228351 1.0
A      1  0.7757737777782  0.0016832982782  0.4159138216209 1.0
A      1  0.8870135421473  0.0012670295901  0.5829149822740 1.0
A      1  0.7759827807369  0.0011738439631  0.7496697875775 1.0
A      1  0.8867737150425  0.0014640118384  0.9162695239739 1.0
END
