TITL AB-20764-5019-362 0.0000000000 4458.8459578500 -1494.7158979328 0 0  183 (P1) n - 1
REM
REM Run started: at Fri Oct 6 15:32:57 BST 2023 in /home/michal/install/eddp/airss/examples/1.11
REM pp3 from code version ## 0.9.3 July 2022 commit b0220bf5cbf550a3b7
REM
REM
REM
REM Total runtime: s
REM
REM
REM ./AB.cell (a186c3e4acc5915692489c59fabd1559)
REM ## AIRSS Version 0.9.3 July 2022 commit b0220bf5cbf550a3b7
REM compiler GCC version 11.4.0
REM options -cpp -imultiarch x86_64-linux-gnu -mtune=generic -march=x86-64 -g -Og -fpre-include=/usr/include/finclude/math-vector-fortran.h
REM cmdline: airss.pl -pp3 max 100 -seed AB 
REM seed 1205493771 -1899498314 1743401281 -1724336301 438084060 -737638062 -34922738 -1071662221
REM
REM AB.pp (46f9ffe235eb1beff4ce53cde2d82919)
REM 
CELL 1.54180   16.99142   16.35000   16.05000   90.00000   90.00000   90.00000
LATT -1
SFAC A  B  
A      1  0.9439001757111  0.0983935836248  0.0861206379606 1.0
A      1  0.0548035944342  0.0981992000919  0.2524737705055 1.0
A      1  0.5461251737572  0.5998013434747  0.5907724475709 1.0
A      1  0.3880825314021  0.4996341427075  0.5861337717459 1.0
A      1  0.6079013102293  0.4924902026818  0.4123895133667 1.0
A      1  0.5584194359494  0.3992858807596  0.5879825563177 1.0
A      1  0.4499674233963  0.3927661547965  0.4275847404171 1.0
B      2  0.4596171962089  0.5470891395690  0.3765264727398 1.0
B      2  0.6679142644241  0.6000872150197  0.5031392026827 1.0
B      2  0.3321141805467  0.3978944844116  0.3346127976823 1.0
B      2  0.4528641189980  0.6446515678806  0.4566252036483 1.0
A      1  0.9436201591259  0.0979930171875  0.4191733738023 1.0
A      1  0.0547000456171  0.0984108818787  0.5863560031311 1.0
A      1  0.9441928624754  0.0985207350060  0.7530907748162 1.0
A      1  0.0548512674877  0.0983405521839  0.9196963921108 1.0
A      1  0.2772433986218  0.0984582101112  0.0860286668730 1.0
A      1  0.3880726959512  0.0955231330410  0.2518284279239 1.0
A      1  0.2765047123327  0.0962775631819  0.4194492960617 1.0
A      1  0.3880050174165  0.0989868017812  0.5858797914739 1.0
A      1  0.2775644025860  0.0982173211587  0.7532855516253 1.0
A      1  0.3880744254230  0.0978628710553  0.9185776772839 1.0
A      1  0.1104453853974  0.1985784393956  0.0859936712070 1.0
A      1  0.2216103171109  0.1988689185257  0.2531845653302 1.0
A      1  0.1090042611441  0.1972427771200  0.4192578208890 1.0
A      1  0.2206481344443  0.1966624150096  0.5889692920088 1.0
A      1  0.1103028023943  0.1983522771227  0.7530490695378 1.0
A      1  0.2213456131978  0.1979784637766  0.9188607700610 1.0
A      1  0.9429884265226  0.2979279847361  0.0856411802545 1.0
A      1  0.0528889427638  0.2976853825174  0.2520679383030 1.0
A      1  0.9446484268571  0.2985362970440  0.4189934159518 1.0
A      1  0.0565464926194  0.2986808299553  0.5850081890165 1.0
A      1  0.9444801031681  0.2980572185111  0.7523507397363 1.0
A      1  0.0546229621737  0.2978475288487  0.9182626470604 1.0
A      1  0.6112724706313  0.0976107145162  0.0853444971650 1.0
A      1  0.7222150969171  0.0977827198496  0.2527710860129 1.0
A      1  0.6111995307549  0.0977391008690  0.4193707183143 1.0
A      1  0.7219208874791  0.0987394603944  0.5857714656688 1.0
A      1  0.6109861286354  0.0984568780447  0.7521162874699 1.0
A      1  0.7218388406565  0.0983391550611  0.9193983066542 1.0
A      1  0.4451543280903  0.1957158063381  0.0821532128730 1.0
A      1  0.5565510494896  0.1961823048753  0.2517952706086 1.0
A      1  0.4436792258339  0.1971608832188  0.4179363624627 1.0
A      1  0.5549026635846  0.1987571244687  0.5855300317202 1.0
A      1  0.4443959915340  0.1982320890395  0.7526073958902 1.0
A      1  0.5555719995239  0.1981407446499  0.9181633034833 1.0
A      1  0.2769248656021  0.2978773685723  0.0832093829294 1.0
A      1  0.3915883795067  0.2897822548537  0.2442789540445 1.0
A      1  0.2740662925175  0.2903684058762  0.4265101091481 1.0
A      1  0.3884604750926  0.2977696107291  0.5884750721056 1.0
A      1  0.2769378290458  0.2985574839724  0.7525816677211 1.0
A      1  0.3882421122479  0.2978398842045  0.9174121834169 1.0
A      1  0.1075812482267  0.3981846019583  0.0817279053715 1.0
A      1  0.2134449722311  0.3981115155600  0.2430916157982 1.0
A      1  0.1144706658404  0.3992785166113  0.4173900326196 1.0
A      1  0.2224349299272  0.3994860048811  0.5859331763875 1.0
A      1  0.1101773218874  0.3986382696483  0.7517117211641 1.0
A      1  0.2210337864382  0.3981139669375  0.9174872576636 1.0
A      1  0.9432229218708  0.4983261168381  0.0846205382308 1.0
A      1  0.0537005094563  0.4992306648776  0.2513568149183 1.0
A      1  0.9472117464337  0.4973443580175  0.4187302984385 1.0
A      1  0.0557686414589  0.4990152359913  0.5853876933445 1.0
A      1  0.9434212710912  0.4986458319989  0.7518015608350 1.0
A      1  0.0546834317674  0.4989387237557  0.9178951880587 1.0
A      1  0.7770934465243  0.1979797992862  0.0861663721501 1.0
A      1  0.8879193081288  0.1981304720775  0.2525365634687 1.0
A      1  0.7784561459300  0.1978639561081  0.4190619431527 1.0
A      1  0.8893933828269  0.1982239048142  0.5859438765473 1.0
A      1  0.7777920369042  0.1978819099121  0.7529633008321 1.0
A      1  0.8882713543734  0.1982859692566  0.9193393999411 1.0
A      1  0.6104616763503  0.2976050038315  0.0853563901916 1.0
A      1  0.7214939846510  0.2984416408827  0.2524362490856 1.0
A      1  0.6129476790055  0.2953284398635  0.4190436445615 1.0
A      1  0.7231984329133  0.2961845105460  0.5863712802138 1.0
A      1  0.6113049803174  0.2982875209506  0.7525661956589 1.0
A      1  0.7218226896791  0.2978578343124  0.9199020903772 1.0
A      1  0.4438330366368  0.3969811896317  0.0817082859247 1.0
A      1  0.5520749299166  0.3961457089731  0.2505765968464 1.0
A      1  0.4442132675233  0.3991108258002  0.7521490208492 1.0
A      1  0.5554368427155  0.3981262284014  0.9181270836838 1.0
A      1  0.2755234604572  0.4983133198718  0.0817097191208 1.0
A      1  0.3894808607496  0.5026270554045  0.2387918876926 1.0
A      1  0.2802545936340  0.5097889371473  0.4249294143542 1.0
A      1  0.2765647657580  0.4989151140987  0.7525344571588 1.0
A      1  0.3879909488387  0.4982040666207  0.9181970401905 1.0
A      1  0.1102355982680  0.5984424720963  0.0856321576502 1.0
A      1  0.2220663745942  0.5978010998765  0.2529597333672 1.0
A      1  0.1115419920252  0.5999601047469  0.4193185263837 1.0
A      1  0.2202626793035  0.6010356617009  0.5888933492549 1.0
A      1  0.1094603945772  0.5989315843052  0.7529821535231 1.0
A      1  0.2211694237062  0.5990643933876  0.9189215109044 1.0
A      1  0.9442599756931  0.6989455912161  0.0854121559990 1.0
A      1  0.0557909654751  0.6988777617678  0.2523287714543 1.0
A      1  0.9459190164431  0.6994593026389  0.4189020158402 1.0
A      1  0.0544784909893  0.6992024245588  0.5863671309120 1.0
A      1  0.9433397131298  0.6989978949513  0.7525645381083 1.0
A      1  0.0549443028270  0.6989083635104  0.9193456982712 1.0
A      1  0.7770149551995  0.3980028058828  0.0854584909318 1.0
A      1  0.8877411876485  0.3986984439839  0.2524084765155 1.0
A      1  0.7778297010833  0.3987507326336  0.4200150035683 1.0
A      1  0.8910533889314  0.3972142082339  0.5859286069576 1.0
A      1  0.7784747907290  0.3964450860469  0.7555594935834 1.0
A      1  0.8889339528781  0.3983069145582  0.9193878420747 1.0
A      1  0.6100175237558  0.4977141216727  0.0848150645715 1.0
A      1  0.7214258604728  0.4976922446566  0.2505536908540 1.0
A      1  0.7271147223300  0.4914836905713  0.5930058600442 1.0
A      1  0.6108689942934  0.4993133238314  0.7535036787569 1.0
A      1  0.7220268817974  0.4983303611250  0.9195966997510 1.0
A      1  0.4448058198633  0.6005103156919  0.0813850375564 1.0
A      1  0.5554392704863  0.5981560435291  0.2494557040872 1.0
A      1  0.4418615125491  0.5993643739408  0.7553585153009 1.0
A      1  0.5555116622320  0.5986289886707  0.9186174179360 1.0
A      1  0.2776886885072  0.6980514955974  0.0873435967916 1.0
A      1  0.3906601370154  0.6973779566559  0.2570587127644 1.0
A      1  0.2797895168651  0.7019660447317  0.4213317484028 1.0
A      1  0.3845356978799  0.7022214948556  0.5908242262858 1.0
A      1  0.2756557354036  0.6997436725911  0.7547615768607 1.0
A      1  0.3875842455447  0.6996087076077  0.9192838606108 1.0
A      1  0.1108687941057  0.7985153284108  0.0863963880113 1.0
A      1  0.2223303139473  0.7979405619476  0.2532563906542 1.0
A      1  0.1110482051252  0.7991084171976  0.4196448152211 1.0
A      1  0.2201735483887  0.8003775638118  0.5870575492444 1.0
A      1  0.1099327376838  0.7990717035409  0.7532911878524 1.0
A      1  0.2212766754683  0.7989669610394  0.9204790400993 1.0
A      1  0.9441750857436  0.8985127519426  0.0865703932104 1.0
A      1  0.0549927972098  0.8981546892025  0.2529484016940 1.0
A      1  0.9433481960498  0.8982479689846  0.4193428399567 1.0
A      1  0.0548412906424  0.8993408096541  0.5862823769003 1.0
A      1  0.9444668271377  0.8993586634248  0.7533129949160 1.0
A      1  0.0550293604527  0.8987630380864  0.9199373248490 1.0
A      1  0.7769918125185  0.5984904128958  0.0852760550081 1.0
A      1  0.8902004998775  0.5987935680673  0.2489725877568 1.0
A      1  0.7862675760848  0.5973435266538  0.4113272408498 1.0
A      1  0.8879232122072  0.5989076982707  0.5847351723024 1.0
A      1  0.7775496741564  0.5988371175246  0.7542151219613 1.0
A      1  0.8885589320644  0.5987795310644  0.9191400796250 1.0
A      1  0.6110194147668  0.6988695861637  0.0849554652315 1.0
A      1  0.7212318937628  0.6984067228968  0.2518211241637 1.0
A      1  0.6010307000912  0.7027037153134  0.4117864321299 1.0
A      1  0.7259531984254  0.7069545815738  0.5947072542380 1.0
A      1  0.6102541206864  0.6992487491641  0.7537820563854 1.0
A      1  0.7219279070964  0.6989556481244  0.9196614758850 1.0
A      1  0.4432748561671  0.7984809005629  0.0860480036711 1.0
A      1  0.5542562925782  0.8006324364452  0.2494172621594 1.0
A      1  0.4419536662912  0.8035899466366  0.4201406413726 1.0
A      1  0.5548689376742  0.7984862238599  0.5853547652652 1.0
A      1  0.4441707776629  0.7996012317849  0.7535629947945 1.0
A      1  0.5548081851228  0.7988703803996  0.9196321466768 1.0
A      1  0.2770169385814  0.8985403647632  0.0863177869450 1.0
A      1  0.3875761841755  0.8980869393387  0.2524729890969 1.0
A      1  0.2762293319117  0.8997687019462  0.4197511455562 1.0
A      1  0.3877255590677  0.9001897558827  0.5868797250547 1.0
A      1  0.2771262156513  0.8988113595095  0.7534808052717 1.0
A      1  0.3880699822760  0.8987737328108  0.9195206778128 1.0
A      1  0.1104765739571  0.9985379535115  0.0861935850230 1.0
A      1  0.2208839155228  0.9982412309008  0.2525191725179 1.0
A      1  0.1096643220060  0.9982924779616  0.4195232556769 1.0
A      1  0.2211627449940  0.9987180381103  0.5867297026998 1.0
A      1  0.1107751866950  0.9988023444955  0.7531834178772 1.0
A      1  0.2214477169431  0.9985077617205  0.9198270505418 1.0
A      1  0.7775861307822  0.7985754372577  0.0862209773412 1.0
A      1  0.8880691429477  0.7981199032030  0.2531622556289 1.0
A      1  0.7753970871179  0.7962577920190  0.4206424886862 1.0
A      1  0.8898956172058  0.8003992456367  0.5863760416778 1.0
A      1  0.7786179612410  0.8012808964217  0.7563886448355 1.0
A      1  0.8889082281192  0.7989053664332  0.9202527017440 1.0
A      1  0.6109823933518  0.8987242064750  0.0853000154436 1.0
A      1  0.7218306803968  0.8980320466442  0.2529443977056 1.0
A      1  0.6105851596146  0.8995336451039  0.4191264382188 1.0
A      1  0.7218216228713  0.9012162588837  0.5865008215313 1.0
A      1  0.6109614919193  0.8986879691361  0.7525698775585 1.0
A      1  0.7215552438230  0.8991278174170  0.9202234919425 1.0
A      1  0.4441496025740  0.9974644010200  0.0855052486044 1.0
A      1  0.5551516438098  0.9982198388753  0.2522819266171 1.0
A      1  0.4439712337255  0.9995522082233  0.4193130690430 1.0
A      1  0.5546679657352  0.9988172242192  0.5859929255246 1.0
A      1  0.4441900303216  0.9987966780824  0.7526494136755 1.0
A      1  0.5549360791541  0.9986105321679  0.9188331733709 1.0
A      1  0.7776853480131  0.9982683431717  0.0863653815827 1.0
A      1  0.8885364205021  0.9981310249349  0.2527209196207 1.0
A      1  0.7775640060350  0.9977201852209  0.4192581178301 1.0
A      1  0.8885067991771  0.9991631919607  0.5862872733852 1.0
A      1  0.7776184556798  0.9992945163937  0.7531643005278 1.0
A      1  0.8883833249202  0.9985016551165  0.9197789642549 1.0
END
