TITL AB-20764-5019-149 0.0000000000 4458.8459578500 -1488.5412230474 0 0  183 (P1) n - 1
REM
REM Run started: at Fri Oct 6 15:24:41 BST 2023 in /home/michal/install/eddp/airss/examples/1.11
REM pp3 from code version ## 0.9.3 July 2022 commit b0220bf5cbf550a3b7
REM
REM
REM
REM Total runtime: s
REM
REM
REM ./AB.cell (a186c3e4acc5915692489c59fabd1559)
REM ## AIRSS Version 0.9.3 July 2022 commit b0220bf5cbf550a3b7
REM compiler GCC version 11.4.0
REM options -cpp -imultiarch x86_64-linux-gnu -mtune=generic -march=x86-64 -g -Og -fpre-include=/usr/include/finclude/math-vector-fortran.h
REM cmdline: airss.pl -pp3 max 100 -seed AB 
REM seed -291219820 -1539854390 -134913822 -1630953 2130294957 -755647132 -728035199 1140516170
REM
REM AB.pp (46f9ffe235eb1beff4ce53cde2d82919)
REM 
CELL 1.54180   16.99142   16.35000   16.05000   90.00000   90.00000   90.00000
LATT -1
SFAC A  B  
A      1  0.9455749477641  0.0979381264616  0.0837161666437 1.0
A      1  0.0569995261387  0.0985222045433  0.2503188286966 1.0
A      1  0.5920057592579  0.3877799332448  0.5784258413018 1.0
A      1  0.6203553802181  0.5032374608137  0.4233067708500 1.0
A      1  0.3628985783748  0.5251989327947  0.5789642792303 1.0
A      1  0.4430846326770  0.3956635029803  0.4444230936109 1.0
A      1  0.4441905349954  0.6090770842193  0.4235866593699 1.0
B      2  0.5160805538571  0.5261551284943  0.5508630362432 1.0
B      2  0.5727941894784  0.6325587594166  0.5947849405143 1.0
B      2  0.4965704933683  0.4920624539690  0.3374955298554 1.0
B      2  0.4566195187582  0.4187605479939  0.6119830533107 1.0
A      1  0.9463516346420  0.0970830514787  0.4162712380238 1.0
A      1  0.0572941606727  0.0969105605275  0.5840249726078 1.0
A      1  0.9458587016523  0.0967741334987  0.7512790018453 1.0
A      1  0.0562163056231  0.0980239456743  0.9177897244713 1.0
A      1  0.2782997669658  0.0988941580591  0.0847823196439 1.0
A      1  0.3893263820228  0.1000683721676  0.2514175317861 1.0
A      1  0.2785909592951  0.0994892784272  0.4182120926643 1.0
A      1  0.3896700585811  0.0958682928439  0.5849083496880 1.0
A      1  0.2783350658528  0.0987145582294  0.7514121034054 1.0
A      1  0.3890142148290  0.0976537748698  0.9188846026949 1.0
A      1  0.1115611573567  0.1987336975607  0.0845033293837 1.0
A      1  0.2235037995604  0.1993660574249  0.2516019104340 1.0
A      1  0.1113643416069  0.1985304163519  0.4171096383333 1.0
A      1  0.2194607624200  0.1967488772775  0.5848459462176 1.0
A      1  0.1105392334111  0.1979512830770  0.7513972888379 1.0
A      1  0.2218891792943  0.1978339366113  0.9188056551875 1.0
A      1  0.9444400596688  0.2983662834706  0.0835499581191 1.0
A      1  0.0556199734331  0.2983214175680  0.2504783400783 1.0
A      1  0.9450979534506  0.2977157341331  0.4170577856954 1.0
A      1  0.0570982682108  0.2984749925942  0.5839674493661 1.0
A      1  0.9442840521657  0.2977943180138  0.7502635659002 1.0
A      1  0.0555704390659  0.2982099870341  0.9171940508932 1.0
A      1  0.6120474901014  0.0972919927681  0.0834253507691 1.0
A      1  0.7233690221472  0.0975012418886  0.2496012677390 1.0
A      1  0.6128643393245  0.0980145845474  0.4170015192369 1.0
A      1  0.7241005762324  0.0956001850922  0.5836924320934 1.0
A      1  0.6125069096342  0.0974657727791  0.7506385308525 1.0
A      1  0.7227384726855  0.0976516427831  0.9173279885329 1.0
A      1  0.4450881719258  0.1990220449725  0.0862690690615 1.0
A      1  0.5567332280996  0.1958691010669  0.2493014239406 1.0
A      1  0.4456738002791  0.1987569220559  0.4186707750859 1.0
A      1  0.5573998510192  0.1972503707910  0.5838334227750 1.0
A      1  0.4454803087649  0.1965464694799  0.7536481298497 1.0
A      1  0.5558011984728  0.1974282504660  0.9177303356875 1.0
A      1  0.2781745658370  0.2990729693267  0.0863282348814 1.0
A      1  0.3915643723455  0.3030549247989  0.2557960392481 1.0
A      1  0.2772232288590  0.2991663822849  0.4187511800351 1.0
A      1  0.3822141587714  0.2867011277386  0.5908431592706 1.0
A      1  0.2754790794534  0.2980473826849  0.7536128518960 1.0
A      1  0.3877665517625  0.2961526253505  0.9221140228504 1.0
A      1  0.1100666369110  0.3983589790312  0.0834180276583 1.0
A      1  0.2199735773297  0.3981400171472  0.2494283602471 1.0
A      1  0.1103021385907  0.3989980917496  0.4170349191677 1.0
A      1  0.2212152502527  0.3993130171346  0.5839256507940 1.0
A      1  0.1097449490789  0.3987923787743  0.7506223592736 1.0
A      1  0.2216643175977  0.3980772647920  0.9177488292898 1.0
A      1  0.9439679596004  0.4983814328373  0.0832737313336 1.0
A      1  0.0550666416479  0.4988979988490  0.2496025560705 1.0
A      1  0.9443285120850  0.4987593869601  0.4165639980828 1.0
A      1  0.0546698061496  0.4992107278973  0.5836918771086 1.0
A      1  0.9432783482088  0.4986422222987  0.7505272153673 1.0
A      1  0.0551606827677  0.4984491732190  0.9171863456340 1.0
A      1  0.7792920052463  0.1972174930459  0.0828937783528 1.0
A      1  0.8909348912867  0.1975361488231  0.2497013177421 1.0
A      1  0.7805688533413  0.1957495522234  0.4150664764977 1.0
A      1  0.8963083362348  0.1941100966804  0.5836698896808 1.0
A      1  0.7800277094895  0.1956077501335  0.7518966854239 1.0
A      1  0.8901530550760  0.1977520225452  0.9173105372276 1.0
A      1  0.6133674481803  0.2958787623056  0.0807618619490 1.0
A      1  0.7263226036306  0.2965106836392  0.2484354851811 1.0
A      1  0.6136938694672  0.2964276190151  0.4104353268642 1.0
A      1  0.7392490561593  0.2886750988074  0.5835694573666 1.0
A      1  0.6125566481916  0.2964164136522  0.7518033365136 1.0
A      1  0.7239108657364  0.2975158887193  0.9163020958463 1.0
A      1  0.4449055912041  0.3990504750676  0.0835378199072 1.0
A      1  0.5623067703222  0.3920981507639  0.2422126190090 1.0
A      1  0.4421892512279  0.3948817466134  0.7641610134198 1.0
A      1  0.5575226604733  0.3981003682991  0.9184455708399 1.0
A      1  0.2747856345808  0.4991528167684  0.0808600513411 1.0
A      1  0.3805478136347  0.5013331587554  0.2421970207502 1.0
A      1  0.2753894112985  0.4997160192006  0.4108043246634 1.0
A      1  0.2753930951494  0.4988724394152  0.7519125299765 1.0
A      1  0.3878838345236  0.5000735254725  0.9186738781606 1.0
A      1  0.1098626612849  0.5990944809442  0.0829111973188 1.0
A      1  0.2192964562381  0.6014051901105  0.2486090044974 1.0
A      1  0.1086384628546  0.5996494773094  0.4151870704718 1.0
A      1  0.2073190797250  0.6097148138189  0.5836965371336 1.0
A      1  0.1082782776124  0.5992669239530  0.7517926310546 1.0
A      1  0.2210952094615  0.5996577313344  0.9164465882296 1.0
A      1  0.9441848168845  0.6988124722331  0.0833492115567 1.0
A      1  0.0548706164443  0.7001089386938  0.2494454625522 1.0
A      1  0.9447053096855  0.7001886276914  0.4157740829303 1.0
A      1  0.0502897529782  0.7044854980823  0.5837130797643 1.0
A      1  0.9435922450007  0.6993875173940  0.7514029283562 1.0
A      1  0.0550379428779  0.6993684820273  0.9173735212391 1.0
A      1  0.7778313249392  0.3985502552694  0.0829097939346 1.0
A      1  0.8896759446861  0.3984812376529  0.2502071450898 1.0
A      1  0.7794138099606  0.3971333041283  0.4178010182201 1.0
A      1  0.8933136002072  0.3985438058051  0.5835975678353 1.0
A      1  0.7773915614965  0.3976517458289  0.7489584439158 1.0
A      1  0.8889977561952  0.3982031657754  0.9164876812307 1.0
A      1  0.6119601796094  0.4993683562847  0.0819562514636 1.0
A      1  0.7231150260785  0.4984344994176  0.2508527189996 1.0
A      1  0.7330598345675  0.5039150447903  0.5845124174484 1.0
A      1  0.6094428481245  0.4985805112063  0.7432882210875 1.0
A      1  0.7221825035372  0.4981396962729  0.9149010126184 1.0
A      1  0.4450912284125  0.5997440483336  0.0820991784777 1.0
A      1  0.5581804205879  0.6026657734917  0.2466027907339 1.0
A      1  0.4453918183446  0.5972431758787  0.7438938965331 1.0
A      1  0.5554022651024  0.5977101475353  0.9139039117638 1.0
A      1  0.2782734854064  0.6988321634098  0.0831664656729 1.0
A      1  0.3890115715024  0.6993725670064  0.2510891124932 1.0
A      1  0.2766442794317  0.6999368548572  0.4178780025527 1.0
A      1  0.3886271940514  0.7105226241660  0.5848333025340 1.0
A      1  0.2777484779943  0.6983597860688  0.7493650359122 1.0
A      1  0.3891117853456  0.6983018773843  0.9152706104064 1.0
A      1  0.1117370169338  0.7987331921295  0.0836028117165 1.0
A      1  0.2226348872894  0.7998127769020  0.2504183029602 1.0
A      1  0.1114700931907  0.7993647282328  0.4168443996929 1.0
A      1  0.2209409700086  0.8034618356245  0.5838789903976 1.0
A      1  0.1114841607510  0.7986197271936  0.7505829070497 1.0
A      1  0.2225510341139  0.7987163528955  0.9168501714836 1.0
A      1  0.9452849531875  0.8983162642972  0.0836171010718 1.0
A      1  0.0562257640733  0.8991933005587  0.2502869861094 1.0
A      1  0.9453640643231  0.8985029389921  0.4167897193825 1.0
A      1  0.0551380484165  0.9002580232044  0.5838664874192 1.0
A      1  0.9450843694812  0.8979544614746  0.7506434242621 1.0
A      1  0.0559200459683  0.8985831311371  0.9172494397367 1.0
A      1  0.7777049115283  0.5984604902473  0.0832418749808 1.0
A      1  0.8895046107329  0.5988841839006  0.2492767772362 1.0
A      1  0.7815280629652  0.6010975168328  0.4158383090783 1.0
A      1  0.8919415550297  0.6013541260693  0.5837400866260 1.0
A      1  0.7781246143051  0.5994129132417  0.7514301804360 1.0
A      1  0.8889112823558  0.5985269619042  0.9173485582283 1.0
A      1  0.6118195639436  0.6993798774889  0.0816814211513 1.0
A      1  0.7231973280767  0.6993029509100  0.2500354922493 1.0
A      1  0.6116422839983  0.6993705723622  0.4188828102401 1.0
A      1  0.7220469076464  0.6990636567666  0.5834980808731 1.0
A      1  0.6108248210521  0.6979974850326  0.7485916710528 1.0
A      1  0.7221784983912  0.6983999959864  0.9165362485545 1.0
A      1  0.4448187271640  0.7987010419264  0.0837029126012 1.0
A      1  0.5561834025222  0.7994991190858  0.2502970953847 1.0
A      1  0.4450316600718  0.8035409451053  0.4161422453839 1.0
A      1  0.5561850370264  0.7993934379957  0.5836116857465 1.0
A      1  0.4452249441876  0.7995750341581  0.7517223653661 1.0
A      1  0.5559008569133  0.7981796320720  0.9166488224648 1.0
A      1  0.2782377223514  0.8988030068064  0.0838851133986 1.0
A      1  0.3891684098169  0.8997408784290  0.2499134119593 1.0
A      1  0.2785422446992  0.8999262238867  0.4171302631553 1.0
A      1  0.3895526897898  0.9022851171180  0.5842069006910 1.0
A      1  0.2787201347705  0.8987337495488  0.7510061191411 1.0
A      1  0.3892548984861  0.8983367656092  0.9179797870476 1.0
A      1  0.1119871874289  0.9985044498456  0.0839782459447 1.0
A      1  0.2231171231360  0.9994265931415  0.2507795366954 1.0
A      1  0.1124232218131  0.9986034590075  0.4170367027727 1.0
A      1  0.2226630498166  0.9993968886490  0.5843922836405 1.0
A      1  0.1122046580446  0.9980433494713  0.7511070882460 1.0
A      1  0.2227315899226  0.9983357579395  0.9176728170349 1.0
A      1  0.7781683176779  0.7984816892098  0.0833843851041 1.0
A      1  0.8890784310217  0.7992473616343  0.2498529676970 1.0
A      1  0.7781030475015  0.7993123624988  0.4165678451827 1.0
A      1  0.8869733561531  0.8002166071966  0.5836163687666 1.0
A      1  0.7775260030146  0.7984716530769  0.7505597511909 1.0
A      1  0.8886883012990  0.7987909186544  0.9172282938983 1.0
A      1  0.6115245385534  0.8983877001045  0.0835515368377 1.0
A      1  0.7227678227971  0.8986494504337  0.2498974734597 1.0
A      1  0.6122010043153  0.8992378593283  0.4168966638132 1.0
A      1  0.7221559798302  0.8982594901943  0.5836903872437 1.0
A      1  0.6117177021484  0.8982746319071  0.7505649987224 1.0
A      1  0.7223683506342  0.8982290702793  0.9172025488158 1.0
A      1  0.4449972846577  0.9989180495721  0.0844583791104 1.0
A      1  0.5561071748985  0.9981534934514  0.2503882250384 1.0
A      1  0.4455792119178  0.0004170300105  0.4167395490378 1.0
A      1  0.5566071909724  0.9984670859644  0.5839326553416 1.0
A      1  0.4453782795075  0.9983709133512  0.7518249040894 1.0
A      1  0.5559171101898  0.9979456725234  0.9173613527243 1.0
A      1  0.7787505065138  0.9977907873948  0.0834947574880 1.0
A      1  0.8898311764664  0.9983477092751  0.2499826759130 1.0
A      1  0.7791851272359  0.9976246070215  0.4165792942105 1.0
A      1  0.8895418213256  0.9976004759841  0.5837405254822 1.0
A      1  0.7787995166410  0.9971438541821  0.7507429574177 1.0
A      1  0.8893554573182  0.9981275460829  0.9173297252739 1.0
END
