TITL AB-20764-5019-412 0.0000000000 4458.8459578500 -1500.4594191690 0 0  183 (P1) n - 1
REM
REM Run started: at Fri Oct 6 15:34:48 BST 2023 in /home/michal/install/eddp/airss/examples/1.11
REM pp3 from code version ## 0.9.3 July 2022 commit b0220bf5cbf550a3b7
REM
REM
REM
REM Total runtime: s
REM
REM
REM ./AB.cell (a186c3e4acc5915692489c59fabd1559)
REM ## AIRSS Version 0.9.3 July 2022 commit b0220bf5cbf550a3b7
REM compiler GCC version 11.4.0
REM options -cpp -imultiarch x86_64-linux-gnu -mtune=generic -march=x86-64 -g -Og -fpre-include=/usr/include/finclude/math-vector-fortran.h
REM cmdline: airss.pl -pp3 max 100 -seed AB 
REM seed 684882148 -1039554948 1834167136 2075864791 -1903491553 -540745072 1580199677 1460266184
REM
REM AB.pp (46f9ffe235eb1beff4ce53cde2d82919)
REM 
CELL 1.54180   16.99142   16.35000   16.05000   90.00000   90.00000   90.00000
LATT -1
SFAC A  B  
A      1  0.9451597700788  0.1001239969282  0.0798814009810 1.0
A      1  0.0558056772020  0.1003179648068  0.2463327556127 1.0
A      1  0.6130817447139  0.5010630860657  0.4074562645149 1.0
A      1  0.3780133225279  0.5036067429980  0.5772178990168 1.0
A      1  0.4407647337990  0.4052106722567  0.4087116165429 1.0
A      1  0.4414365517954  0.6005989828164  0.4096002119101 1.0
A      1  0.5517223879092  0.4544077265324  0.5822005160731 1.0
B      2  0.5125572365608  0.3150329949361  0.6447758526154 1.0
B      2  0.6128559107261  0.5993641237207  0.6275338210690 1.0
B      2  0.5205845217976  0.6224989613656  0.5481452945923 1.0
B      2  0.5128629004458  0.3166043975226  0.5154302427515 1.0
A      1  0.9443516132114  0.0998667721205  0.4132729210763 1.0
A      1  0.0541613984973  0.1002240809917  0.5797777266194 1.0
A      1  0.9447536983220  0.1000930986548  0.7465090724209 1.0
A      1  0.0561013172129  0.1004321095989  0.9131792789962 1.0
A      1  0.2783099598580  0.1007160517631  0.0797082923479 1.0
A      1  0.3892423153185  0.1006888249897  0.2469993948570 1.0
A      1  0.2780886474546  0.1014128293439  0.4131152011368 1.0
A      1  0.3880171440105  0.1004590873055  0.5797660701057 1.0
A      1  0.2782076000856  0.1015214311142  0.7462792716980 1.0
A      1  0.3893396591236  0.1009207330956  0.9126809540628 1.0
A      1  0.1114261330011  0.2004368519524  0.0796685312938 1.0
A      1  0.2222068846727  0.2003904395858  0.2458627438099 1.0
A      1  0.1103262951160  0.2002654095000  0.4125311580708 1.0
A      1  0.2182169793083  0.1991523929556  0.5796219396399 1.0
A      1  0.1106982501950  0.2004763157355  0.7468338382865 1.0
A      1  0.2224891106320  0.2006329862504  0.9133334296345 1.0
A      1  0.9449324230594  0.3001758584463  0.0798400966971 1.0
A      1  0.0558935958595  0.3003579302695  0.2459241827373 1.0
A      1  0.9443010757138  0.2997357155081  0.4126965370105 1.0
A      1  0.0537826338761  0.2998882043298  0.5797120433126 1.0
A      1  0.9449008790716  0.3000035905240  0.7469702970016 1.0
A      1  0.0563583089944  0.3005506537824  0.9133391826301 1.0
A      1  0.6118172324260  0.0999432064107  0.0801464915674 1.0
A      1  0.7229377841609  0.1001390610023  0.2463600185163 1.0
A      1  0.6123505826763  0.0974337064605  0.4111221817258 1.0
A      1  0.7249852795090  0.0971484758659  0.5800839053680 1.0
A      1  0.6124672193567  0.0984481075307  0.7486200636847 1.0
A      1  0.7231137972443  0.1003830324126  0.9136825302106 1.0
A      1  0.4445091151913  0.2007389839396  0.0797747617792 1.0
A      1  0.5555979422305  0.1993860314428  0.2453319948817 1.0
A      1  0.4454253850959  0.2025243011158  0.4140164618391 1.0
A      1  0.5595461069500  0.1821358213493  0.5793402502588 1.0
A      1  0.4454604174892  0.2024355072413  0.7456963500877 1.0
A      1  0.5558126182734  0.1996237770146  0.9147709235995 1.0
A      1  0.2776880457341  0.3007985866750  0.0794090127294 1.0
A      1  0.3886334119580  0.3003828920934  0.2458946551089 1.0
A      1  0.2755035660648  0.3011776603866  0.4112760786918 1.0
A      1  0.3754260324422  0.3014723277289  0.5795038095034 1.0
A      1  0.2760041731403  0.3014602788933  0.7476756498041 1.0
A      1  0.3889181488377  0.3008452055215  0.9131805960596 1.0
A      1  0.1109942866576  0.4007173906997  0.0793755372367 1.0
A      1  0.2217180805168  0.4007594645242  0.2451016365049 1.0
A      1  0.1090731371888  0.4004447778360  0.4122199527367 1.0
A      1  0.2161963341584  0.4018003163799  0.5793459380244 1.0
A      1  0.1099873360633  0.4009456457057  0.7468360165054 1.0
A      1  0.2224784902781  0.4013307149978  0.9130777631063 1.0
A      1  0.9449024296203  0.5007803583993  0.0798305566273 1.0
A      1  0.0557484603889  0.5009444265588  0.2459860551991 1.0
A      1  0.9439832960773  0.5004385498954  0.4131099645385 1.0
A      1  0.0536111004279  0.5010550514117  0.5796155239644 1.0
A      1  0.9444167719315  0.5007402382324  0.7465838648124 1.0
A      1  0.0561155579699  0.5010757676380  0.9131111078106 1.0
A      1  0.7789559831617  0.1994061950872  0.0799784421350 1.0
A      1  0.8897527026867  0.1999969307204  0.2465323865849 1.0
A      1  0.7785408598254  0.1992298660345  0.4137224275332 1.0
A      1  0.8871990047328  0.2008236093475  0.5799359021256 1.0
A      1  0.7789529848858  0.1995925828671  0.7463361768793 1.0
A      1  0.8900288921996  0.2001424888200  0.9132580447535 1.0
A      1  0.6118910238054  0.3000194405446  0.0803098902145 1.0
A      1  0.7246514190528  0.3000101105952  0.2440079357446 1.0
A      1  0.6167648079655  0.2993019072686  0.4048765094205 1.0
A      1  0.7132549113896  0.3023997363243  0.5800607407485 1.0
A      1  0.6170183263969  0.2993053803655  0.7551664690380 1.0
A      1  0.7249085271116  0.3004230401063  0.9162048965474 1.0
A      1  0.4439007458107  0.4009209738134  0.0794471466236 1.0
A      1  0.5551398531420  0.4002762086804  0.2444255850132 1.0
A      1  0.4416835794933  0.4056569185263  0.7502065965689 1.0
A      1  0.5554776043428  0.3998868206457  0.9165388315486 1.0
A      1  0.2772334992104  0.5011416593052  0.0786803258015 1.0
A      1  0.3874090852376  0.5014049245131  0.2436576298879 1.0
A      1  0.2736852539688  0.5013423541280  0.4107769013532 1.0
A      1  0.2762852604918  0.5022364995209  0.7464568732733 1.0
A      1  0.3888451155352  0.5027941395003  0.9129454250685 1.0
A      1  0.1110802884646  0.6010111413174  0.0793571378988 1.0
A      1  0.2215396153391  0.6015414441638  0.2451646636209 1.0
A      1  0.1092910076916  0.6011548341965  0.4123882759201 1.0
A      1  0.2178469943863  0.6028241607137  0.5790087553621 1.0
A      1  0.1104036483047  0.6011949043565  0.7464223544147 1.0
A      1  0.2220452946030  0.6016139753277  0.9127235261023 1.0
A      1  0.9449417448747  0.7008824032971  0.0799078423788 1.0
A      1  0.0555555285168  0.7012494676650  0.2460646768038 1.0
A      1  0.9443947116642  0.7009686141423  0.4128973284892 1.0
A      1  0.0548442021445  0.7020460961284  0.5796607579216 1.0
A      1  0.9449180827918  0.7009548264859  0.7469052150100 1.0
A      1  0.0560063425071  0.7012773258139  0.9131438978843 1.0
A      1  0.7792152752455  0.4004731936555  0.0804840131198 1.0
A      1  0.8901993930118  0.4005338268684  0.2463763679547 1.0
A      1  0.7791873728233  0.3998742336492  0.4125694796444 1.0
A      1  0.8889790085576  0.3988150534337  0.5798400915107 1.0
A      1  0.7800190872415  0.4000056337945  0.7473294733470 1.0
A      1  0.8906705369975  0.4005145788553  0.9135824434640 1.0
A      1  0.6117277065818  0.5007498540225  0.0802990728033 1.0
A      1  0.7234581231029  0.5000617332586  0.2453581395147 1.0
A      1  0.7295215728974  0.5011719521687  0.5792981862702 1.0
A      1  0.6156848370045  0.4990817696720  0.7572653919859 1.0
A      1  0.7250122436142  0.5004262286815  0.9166877066977 1.0
A      1  0.4444013056235  0.6012880281613  0.0792504622528 1.0
A      1  0.5548951212887  0.6006339948696  0.2452999471632 1.0
A      1  0.4507896313023  0.6013608468581  0.7380608690193 1.0
A      1  0.5556744332768  0.6011297697929  0.9148860643117 1.0
A      1  0.2780618913075  0.7010679974768  0.0787147822547 1.0
A      1  0.3881218835995  0.7014371103946  0.2453882222864 1.0
A      1  0.2762078083965  0.7011415930204  0.4120593542616 1.0
A      1  0.3854514572718  0.7014151688812  0.5781929678903 1.0
A      1  0.2786782620086  0.7005446867157  0.7457490503242 1.0
A      1  0.3897093028535  0.7006537946952  0.9111640937317 1.0
A      1  0.1116285955724  0.8008710457136  0.0794866146035 1.0
A      1  0.2221246555552  0.8013232598960  0.2458803984829 1.0
A      1  0.1109224483217  0.8011128594815  0.4127800167917 1.0
A      1  0.2213037293346  0.8017469474221  0.5795089385516 1.0
A      1  0.1118084911630  0.8008234973172  0.7464430938862 1.0
A      1  0.2229132993788  0.8010676727280  0.9126157211351 1.0
A      1  0.9450923968336  0.9005228043882  0.0799691013880 1.0
A      1  0.0557401504855  0.9008539307839  0.2463149089633 1.0
A      1  0.9447561500704  0.9003423894889  0.4130156330505 1.0
A      1  0.0557245162579  0.9011091109601  0.5797761387245 1.0
A      1  0.9454665267645  0.9004985257965  0.7468332665592 1.0
A      1  0.0562613867358  0.9008698119961  0.9131492178289 1.0
A      1  0.7787029482077  0.6011320654302  0.0809993883631 1.0
A      1  0.8895284903269  0.6007735358905  0.2464874069542 1.0
A      1  0.7788968545360  0.6004987948549  0.4124921302979 1.0
A      1  0.8907317426333  0.6016061374575  0.5799812226290 1.0
A      1  0.7786019226892  0.6008773084280  0.7473705442958 1.0
A      1  0.8900350536088  0.6009266411328  0.9135546462853 1.0
A      1  0.6116566469191  0.7007932914125  0.0805251977956 1.0
A      1  0.7217949080139  0.7001383873169  0.2474817372114 1.0
A      1  0.6099894699379  0.6969573887992  0.4160117730212 1.0
A      1  0.7248744172067  0.7008098168580  0.5798846626231 1.0
A      1  0.6134109459240  0.7026745076257  0.7516112488144 1.0
A      1  0.7235061070266  0.7004248575581  0.9150405877108 1.0
A      1  0.4446081817405  0.8008704491901  0.0796855004951 1.0
A      1  0.5554590075181  0.7996100477608  0.2472324821295 1.0
A      1  0.4442084608727  0.8002518050408  0.4132935306391 1.0
A      1  0.5553712582873  0.7912648292036  0.5817199972854 1.0
A      1  0.4448462986044  0.8011639609569  0.7464590930834 1.0
A      1  0.5557641072347  0.8010592827454  0.9147491875824 1.0
A      1  0.2782370382523  0.9009159936470  0.0795947221941 1.0
A      1  0.3890843807811  0.9008059127704  0.2465998780868 1.0
A      1  0.2779533263802  0.9010566652666  0.4129377640905 1.0
A      1  0.3885430781158  0.8997804429514  0.5797450370958 1.0
A      1  0.2782894768724  0.9010951148221  0.7462685386286 1.0
A      1  0.3892752548156  0.9009460136257  0.9129832170004 1.0
A      1  0.1117753396083  0.0006253850293  0.0797403111000 1.0
A      1  0.2225591856379  0.0008791161101  0.2464431573868 1.0
A      1  0.1113829410644  0.0007981485916  0.4130900002888 1.0
A      1  0.2220659389475  0.0007134729540  0.5796633830135 1.0
A      1  0.1117250727886  0.0008469179380  0.7463595640227 1.0
A      1  0.2228045433555  0.0009280086572  0.9129220610502 1.0
A      1  0.7782930792458  0.8006166177890  0.0806709253946 1.0
A      1  0.8888987869886  0.8005729075025  0.2465660339201 1.0
A      1  0.7778704565478  0.7996381031420  0.4130713303510 1.0
A      1  0.8896260330892  0.8010869388221  0.5799512495129 1.0
A      1  0.7792176588387  0.8005023265890  0.7474380252851 1.0
A      1  0.8895583245556  0.8008710650964  0.9137292377384 1.0
A      1  0.6115038513280  0.9003297462651  0.0805907886567 1.0
A      1  0.7222487949525  0.9001583758065  0.2468202337152 1.0
A      1  0.6112286263521  0.8972548947391  0.4135768562730 1.0
A      1  0.7226708980734  0.8983684882911  0.5803748446976 1.0
A      1  0.6118404262202  0.8996315946187  0.7475428116805 1.0
A      1  0.7226782652253  0.9003022798136  0.9139022734665 1.0
A      1  0.4447393736945  0.0008642865882  0.0799256359774 1.0
A      1  0.5556828382545  0.9993982140188  0.2464624242785 1.0
A      1  0.4448986211752  0.0009255076260  0.4135991330536 1.0
A      1  0.5558345132986  0.9911227716787  0.5799869972493 1.0
A      1  0.4450435418511  0.0013574441737  0.7461963616830 1.0
A      1  0.5558876110108  0.0001109045509  0.9139504523388 1.0
A      1  0.7783843184112  0.0000077427883  0.0800956148171 1.0
A      1  0.8891519781845  0.0002573516318  0.2464926919000 1.0
A      1  0.7782161033394  0.9988242897479  0.4131096879700 1.0
A      1  0.8894719909519  0.9997137011127  0.5800109302662 1.0
A      1  0.7787419680742  0.9994331518293  0.7472086801146 1.0
A      1  0.8895081200056  0.0004028274066  0.9134650184337 1.0
END
