TITL AB-20764-5019-95 0.0000000000 4458.8459578500 -1501.0307653421 0 0  183 (P1) n - 1
REM
REM Run started: at Fri Oct 6 15:22:42 BST 2023 in /home/michal/install/eddp/airss/examples/1.11
REM pp3 from code version ## 0.9.3 July 2022 commit b0220bf5cbf550a3b7
REM
REM
REM
REM Total runtime: s
REM
REM
REM ./AB.cell (a186c3e4acc5915692489c59fabd1559)
REM ## AIRSS Version 0.9.3 July 2022 commit b0220bf5cbf550a3b7
REM compiler GCC version 11.4.0
REM options -cpp -imultiarch x86_64-linux-gnu -mtune=generic -march=x86-64 -g -Og -fpre-include=/usr/include/finclude/math-vector-fortran.h
REM cmdline: airss.pl -pp3 max 100 -seed AB 
REM seed -1645333370 -1043871127 -1497821453 -1272473058 1847407209 1985624359 1685690701 -1050970012
REM
REM AB.pp (46f9ffe235eb1beff4ce53cde2d82919)
REM 
CELL 1.54180   16.99142   16.35000   16.05000   90.00000   90.00000   90.00000
LATT -1
SFAC A  B  
A      1  0.9427676605062  0.0997916946298  0.0822032700400 1.0
A      1  0.0536650022918  0.0997831300673  0.2488212923032 1.0
A      1  0.3859551436957  0.4993085656305  0.5822562250088 1.0
A      1  0.4458478866090  0.3973971044452  0.4163801638041 1.0
A      1  0.5520323485750  0.3960542747981  0.5859243702058 1.0
A      1  0.5539845595567  0.5902732906904  0.5958671099125 1.0
A      1  0.4403047495892  0.5922845781265  0.4093245562109 1.0
B      2  0.6381162922711  0.4404192578615  0.4591501429273 1.0
B      2  0.5029692365647  0.6980097734698  0.4996315056617 1.0
B      2  0.6355690291486  0.5654811687279  0.4618227464334 1.0
B      2  0.5671454211486  0.5008993468875  0.3731106574624 1.0
A      1  0.9432072100190  0.0998523241185  0.4155087683584 1.0
A      1  0.0538791097302  0.0997441487325  0.5822517599133 1.0
A      1  0.9428919598613  0.0997866148927  0.7488787451919 1.0
A      1  0.0536828188568  0.0997003967875  0.9155123061669 1.0
A      1  0.2757821220661  0.0996102682550  0.0819330318564 1.0
A      1  0.3864090283903  0.0999490561981  0.2483817339814 1.0
A      1  0.2755174746136  0.0998640594938  0.4154428887987 1.0
A      1  0.3864489861707  0.0994238021746  0.5824394896042 1.0
A      1  0.2758393127334  0.0995448203742  0.7489102388367 1.0
A      1  0.3867341207138  0.0996838686043  0.9152247558058 1.0
A      1  0.1092321555528  0.1996296466201  0.0822130693116 1.0
A      1  0.2201392158376  0.1996620885567  0.2487669519330 1.0
A      1  0.1096726633388  0.1996711608001  0.4155128715720 1.0
A      1  0.2201570951196  0.1994089133871  0.5823105648473 1.0
A      1  0.1093594162497  0.1995456412532  0.7490263472473 1.0
A      1  0.2201630168875  0.1995255051551  0.9156000129827 1.0
A      1  0.9425863940147  0.2996014507697  0.0823840314656 1.0
A      1  0.0537427050019  0.2996321823996  0.2487932617394 1.0
A      1  0.9438605099676  0.2992132501348  0.4155287866296 1.0
A      1  0.0539410002452  0.2993754966791  0.5824546453383 1.0
A      1  0.9429938238665  0.2994779535459  0.7492500146988 1.0
A      1  0.0536716007649  0.2994897674529  0.9157429342941 1.0
A      1  0.6096703589230  0.0996565778394  0.0819569601137 1.0
A      1  0.7205353195437  0.0995519181682  0.2487818333763 1.0
A      1  0.6097527874268  0.0985972626826  0.4152198032499 1.0
A      1  0.7207844693056  0.1003979920332  0.5821875824714 1.0
A      1  0.6096014165079  0.1002181931287  0.7493401587088 1.0
A      1  0.7205283480869  0.0997413496761  0.9155732882469 1.0
A      1  0.4424475111676  0.1994734542716  0.0818671951198 1.0
A      1  0.5532035138925  0.1982432249463  0.2477000747293 1.0
A      1  0.4420981546974  0.1987773207776  0.4156026443283 1.0
A      1  0.5534228294526  0.1992369434113  0.5823107705525 1.0
A      1  0.4425758054880  0.1995683749389  0.7489195564662 1.0
A      1  0.5535128189112  0.1994595122060  0.9158818921675 1.0
A      1  0.2758307802108  0.2994589964414  0.0822352370359 1.0
A      1  0.3868814317876  0.2988991662620  0.2490258487509 1.0
A      1  0.2764247493200  0.2994370698980  0.4156247086448 1.0
A      1  0.3861247886824  0.2989933199408  0.5826503929892 1.0
A      1  0.2756608493587  0.2994832875570  0.7491324597392 1.0
A      1  0.3866317915260  0.2991773054152  0.9155988516574 1.0
A      1  0.1091884528046  0.3994405108804  0.0822142296433 1.0
A      1  0.2202600491971  0.3991092409036  0.2487291601767 1.0
A      1  0.1096097821465  0.3992667509962  0.4157214079685 1.0
A      1  0.2199540264413  0.3991481724894  0.5825873791763 1.0
A      1  0.1089701936755  0.3995513038082  0.7491239418755 1.0
A      1  0.2200814651239  0.3993093623296  0.9156770972404 1.0
A      1  0.9429416127847  0.4994483577198  0.0821554343325 1.0
A      1  0.0543980615617  0.4994567594949  0.2489503095448 1.0
A      1  0.9442634374466  0.4996287503421  0.4157368180057 1.0
A      1  0.0534357470044  0.4994089467666  0.5825239242046 1.0
A      1  0.9421844590142  0.4995958901911  0.7491631656440 1.0
A      1  0.0536127845146  0.4994544792909  0.9157376229759 1.0
A      1  0.7762702989248  0.1996221636638  0.0823145166905 1.0
A      1  0.8872918897596  0.1996964194842  0.2488893805503 1.0
A      1  0.7769943057243  0.1992219169587  0.4154888890305 1.0
A      1  0.8872412048587  0.1998857889517  0.5822927772474 1.0
A      1  0.7763157729417  0.1997812483495  0.7488296366414 1.0
A      1  0.8871076692196  0.1996058988821  0.9156040078686 1.0
A      1  0.6096078983235  0.2989639998445  0.0822305573781 1.0
A      1  0.7207817023043  0.2991740545912  0.2489140537203 1.0
A      1  0.6090895815865  0.2935134888444  0.4131011619424 1.0
A      1  0.7199300700352  0.3001071107851  0.5813314019857 1.0
A      1  0.6096943963378  0.2985212253583  0.7501611568644 1.0
A      1  0.7205809689616  0.2995997898807  0.9162975318718 1.0
A      1  0.4424209617994  0.3989057970318  0.0818802000564 1.0
A      1  0.5535228215013  0.3974152698074  0.2474880350840 1.0
A      1  0.4420797976819  0.3996510612735  0.7501420490208 1.0
A      1  0.5533415866994  0.3987828794913  0.9172990018286 1.0
A      1  0.2753818500265  0.4994125961889  0.0822228211472 1.0
A      1  0.3870503043554  0.4975483430492  0.2466231868541 1.0
A      1  0.2754495674340  0.4979626207423  0.4154297904789 1.0
A      1  0.2751666488922  0.4995257352359  0.7492892952812 1.0
A      1  0.3864190438957  0.4990356358809  0.9166304262586 1.0
A      1  0.1091378958036  0.5995527067119  0.0825091313404 1.0
A      1  0.2211453279651  0.5993599841037  0.2493119187596 1.0
A      1  0.1101357601673  0.5996443261789  0.4155970163791 1.0
A      1  0.2186745335431  0.5988044635487  0.5827263298040 1.0
A      1  0.1083128772966  0.5994464341202  0.7493555457023 1.0
A      1  0.2199278028268  0.5992748373306  0.9162784567830 1.0
A      1  0.9425683382173  0.6995937995196  0.0820359718093 1.0
A      1  0.0544606441397  0.6994405287278  0.2487456198947 1.0
A      1  0.9441990326666  0.6999191036036  0.4152300095420 1.0
A      1  0.0533593999233  0.6996142428778  0.5824291829774 1.0
A      1  0.9422167500365  0.6996502037336  0.7490111889238 1.0
A      1  0.0536901743345  0.6996218051952  0.9157619628545 1.0
A      1  0.7757452255819  0.3998301162939  0.0839211853466 1.0
A      1  0.8872422750491  0.3999918443824  0.2487681772614 1.0
A      1  0.7796926495013  0.3985959254875  0.4151659628313 1.0
A      1  0.8879276208906  0.3992197759738  0.5826303200657 1.0
A      1  0.7767940495650  0.3987006626884  0.7499840963558 1.0
A      1  0.8872073933323  0.3994401011265  0.9162826200662 1.0
A      1  0.6093735575452  0.4994231840700  0.0829781800720 1.0
A      1  0.7168692703698  0.4998398848132  0.2542255038668 1.0
A      1  0.7228412064813  0.4986775689020  0.5853107106410 1.0
A      1  0.6107822881791  0.4965670866348  0.7546986062531 1.0
A      1  0.7212013055132  0.4993565560057  0.9172542777258 1.0
A      1  0.4421423616259  0.5996055121181  0.0817176410316 1.0
A      1  0.5536974847445  0.6024084024653  0.2455940147732 1.0
A      1  0.4407709910052  0.5992771799493  0.7528735653155 1.0
A      1  0.5536645151121  0.5994219717501  0.9168572650414 1.0
A      1  0.2753549816606  0.6996609104334  0.0823980822141 1.0
A      1  0.3868937666695  0.6999333750878  0.2477197548728 1.0
A      1  0.2774083711322  0.6993578111215  0.4165635504517 1.0
A      1  0.3807059796895  0.6992601086304  0.5886601359579 1.0
A      1  0.2735117792030  0.6996786340146  0.7514658853512 1.0
A      1  0.3863762866576  0.6999270866988  0.9165380718484 1.0
A      1  0.1090242396300  0.7996899703483  0.0823803723354 1.0
A      1  0.2206843109536  0.7996016111773  0.2491282334808 1.0
A      1  0.1098729889623  0.7995164325050  0.4155015700588 1.0
A      1  0.2188607397275  0.8001601233498  0.5825578684146 1.0
A      1  0.1083975897964  0.7998566858624  0.7491823566089 1.0
A      1  0.2198483277723  0.8000241356049  0.9160635717395 1.0
A      1  0.9429407960717  0.8999098344294  0.0819122094617 1.0
A      1  0.0542816483589  0.8997812739611  0.2488032653861 1.0
A      1  0.9439754658893  0.9002705637694  0.4155156868340 1.0
A      1  0.0534277167187  0.8997503520564  0.5822521237614 1.0
A      1  0.9422484131731  0.8997286483467  0.7486710717170 1.0
A      1  0.0535901063262  0.8997936309281  0.9154851543053 1.0
A      1  0.7762380813229  0.5986491429714  0.0823886346396 1.0
A      1  0.8880423884053  0.5989898860921  0.2484008783771 1.0
A      1  0.7795432319055  0.6001233884981  0.4145346047578 1.0
A      1  0.8869950951353  0.6000430654294  0.5823920555221 1.0
A      1  0.7755221828136  0.5999648550812  0.7492135565012 1.0
A      1  0.8872528907430  0.5996073998530  0.9156334389616 1.0
A      1  0.6097547786997  0.7003739496718  0.0807652742872 1.0
A      1  0.7240992922533  0.7002453136599  0.2440374553231 1.0
A      1  0.6172921253651  0.7090973402390  0.4022393514450 1.0
A      1  0.7169481318712  0.6986863157230  0.5791650830471 1.0
A      1  0.6091486102346  0.6998427857367  0.7511177181450 1.0
A      1  0.7209016414920  0.6996627190991  0.9157031532938 1.0
A      1  0.4420082281827  0.8000413313174  0.0810732638695 1.0
A      1  0.5528394906973  0.8025998691800  0.2443427526624 1.0
A      1  0.4399555289135  0.8058865798228  0.4092976379197 1.0
A      1  0.5575014935545  0.8083546717289  0.5899139292975 1.0
A      1  0.4422019160258  0.7997621526542  0.7504783215741 1.0
A      1  0.5536245773870  0.8001021688958  0.9158946339054 1.0
A      1  0.2752615311949  0.8998505197844  0.0816552469785 1.0
A      1  0.3856070001242  0.9016155679109  0.2462995500513 1.0
A      1  0.2747200894996  0.9006421456603  0.4153068684356 1.0
A      1  0.3871973436448  0.8990469437908  0.5814674334579 1.0
A      1  0.2757547020465  0.8994863755267  0.7486954071484 1.0
A      1  0.3866223415991  0.9001300173583  0.9154353534489 1.0
A      1  0.1091288528010  0.9998217381547  0.0819861498933 1.0
A      1  0.2197773153045  0.0001082402279  0.2485470953576 1.0
A      1  0.1092722408126  0.9999979893152  0.4156198048762 1.0
A      1  0.2202789840179  0.9996426794087  0.5823258619245 1.0
A      1  0.1091346596887  0.9996037965953  0.7488043360521 1.0
A      1  0.2200982320366  0.9997886184122  0.9152495155256 1.0
A      1  0.7767943517066  0.8004632749610  0.0809680173519 1.0
A      1  0.8886029360529  0.8000433694674  0.2482670217125 1.0
A      1  0.7796673149148  0.8018210335771  0.4149422698166 1.0
A      1  0.8868156295685  0.7992779626558  0.5822077379756 1.0
A      1  0.7753300999338  0.7994629169175  0.7478633460213 1.0
A      1  0.8873144585105  0.7997263581848  0.9149425856995 1.0
A      1  0.6099112832226  0.9005872115545  0.0810345368118 1.0
A      1  0.7205102075229  0.8996307282331  0.2488270426859 1.0
A      1  0.6093066022251  0.9020641085081  0.4162321833368 1.0
A      1  0.7222573049226  0.9012226044955  0.5821375414680 1.0
A      1  0.6105342524377  0.9020638861892  0.7521054782380 1.0
A      1  0.7211615185950  0.8999088622188  0.9156185147611 1.0
A      1  0.4426652627236  0.0000508700833  0.0815585999792 1.0
A      1  0.5533986775047  0.0000260486299  0.2483971991093 1.0
A      1  0.4421196415378  0.0013861744261  0.4152198157803 1.0
A      1  0.5538118123306  0.0023845701165  0.5828198446505 1.0
A      1  0.4426424109095  0.9994968329283  0.7486772920632 1.0
A      1  0.5534152950818  0.0003147565963  0.9159095234596 1.0
A      1  0.7764075546478  0.9999905037463  0.0822817634005 1.0
A      1  0.8873829637270  0.9996764685545  0.2488083226707 1.0
A      1  0.7768770486817  0.0003170835048  0.4152860485044 1.0
A      1  0.8877018912224  0.0001021723112  0.5820522850855 1.0
A      1  0.7766309091145  0.0002755629744  0.7489398401899 1.0
A      1  0.8872997480986  0.9998397339104  0.9155444188513 1.0
END
