TITL AB-20764-5019-174 0.0000000000 4458.8459578500 -1495.0821554747 0 0  183 (P1) n - 1
REM
REM Run started: at Fri Oct 6 15:25:40 BST 2023 in /home/michal/install/eddp/airss/examples/1.11
REM pp3 from code version ## 0.9.3 July 2022 commit b0220bf5cbf550a3b7
REM
REM
REM
REM Total runtime: s
REM
REM
REM ./AB.cell (a186c3e4acc5915692489c59fabd1559)
REM ## AIRSS Version 0.9.3 July 2022 commit b0220bf5cbf550a3b7
REM compiler GCC version 11.4.0
REM options -cpp -imultiarch x86_64-linux-gnu -mtune=generic -march=x86-64 -g -Og -fpre-include=/usr/include/finclude/math-vector-fortran.h
REM cmdline: airss.pl -pp3 max 100 -seed AB 
REM seed 1377479960 1513763767 -828997996 -817276761 1501914000 1031125739 371640875 -1305836732
REM
REM AB.pp (46f9ffe235eb1beff4ce53cde2d82919)
REM 
CELL 1.54180   16.99142   16.35000   16.05000   90.00000   90.00000   90.00000
LATT -1
SFAC A  B  
A      1  0.9443181313204  0.1025774625780  0.0847735473119 1.0
A      1  0.0549066194543  0.1007028873320  0.2511844672936 1.0
A      1  0.5412926548248  0.4104915700797  0.5885781300977 1.0
A      1  0.4407510425096  0.3881228092114  0.4131957547012 1.0
A      1  0.4099805106792  0.5483159113148  0.5122664764101 1.0
A      1  0.5726826943892  0.5238328941277  0.4169208221753 1.0
A      1  0.5643513969868  0.6113587108274  0.5920217284334 1.0
B      2  0.4601202274066  0.6381293827001  0.3826051225277 1.0
B      2  0.6583538011333  0.4153160045331  0.4864956586590 1.0
B      2  0.3650559521957  0.4536703278362  0.6300242914075 1.0
B      2  0.6612427433251  0.4153364279349  0.3531264948973 1.0
A      1  0.9443490048829  0.1007657953941  0.4180868926364 1.0
A      1  0.0551605425381  0.1013940163861  0.5847861424968 1.0
A      1  0.9446960418704  0.1030572918099  0.7515190964810 1.0
A      1  0.0554200713109  0.1020235297806  0.9179906758021 1.0
A      1  0.2774647781965  0.1011827890584  0.0840450515499 1.0
A      1  0.3875708895552  0.0997789659826  0.2500906644041 1.0
A      1  0.2765054889189  0.0978524558513  0.4179232110387 1.0
A      1  0.3880942095030  0.1017800335696  0.5854549592116 1.0
A      1  0.2777888774804  0.1018248537027  0.7514559363344 1.0
A      1  0.3886674469294  0.1021129288216  0.9181464841057 1.0
A      1  0.1106424043305  0.2015406251151  0.0840223350268 1.0
A      1  0.2210929533378  0.1990246044288  0.2502589595334 1.0
A      1  0.1112565993515  0.1985359744867  0.4177025468391 1.0
A      1  0.2213836332552  0.2002423429313  0.5847406137500 1.0
A      1  0.1112499038338  0.2018880573904  0.7515000293407 1.0
A      1  0.2218793767591  0.2015802419396  0.9173505395029 1.0
A      1  0.9443102830521  0.3022486363077  0.0843084037368 1.0
A      1  0.0557011228043  0.3004299401228  0.2501429258436 1.0
A      1  0.9486742362567  0.2978948951294  0.4180407455409 1.0
A      1  0.0565520596339  0.3010343754519  0.5853256823895 1.0
A      1  0.9450179257698  0.3023868450676  0.7522169225950 1.0
A      1  0.0557227855690  0.3020536906716  0.9179006439706 1.0
A      1  0.6113382699842  0.1025199735494  0.0842495257876 1.0
A      1  0.7216618220822  0.1028744869977  0.2516757996539 1.0
A      1  0.6108810230276  0.0969581057506  0.4180701167561 1.0
A      1  0.7220042235452  0.1038750938724  0.5847321220102 1.0
A      1  0.6116499147447  0.1039227049303  0.7520422867392 1.0
A      1  0.7225192718803  0.1032138484256  0.9182537259926 1.0
A      1  0.4442037576157  0.2014127022889  0.0836130766580 1.0
A      1  0.5537409081206  0.2006883435312  0.2492363905380 1.0
A      1  0.4406575646225  0.1941984831380  0.4170087154012 1.0
A      1  0.5539753832798  0.2032067115113  0.5868574136723 1.0
A      1  0.4439700866844  0.2021117215443  0.7522030061194 1.0
A      1  0.5555714531800  0.2031514262498  0.9177320407714 1.0
A      1  0.2764869239624  0.3006200879500  0.0831698706880 1.0
A      1  0.3862612757635  0.2990743919498  0.2479717381447 1.0
A      1  0.2746768398981  0.2969512718336  0.4163911275986 1.0
A      1  0.3866732446785  0.2987733466437  0.5838513280844 1.0
A      1  0.2775308589061  0.3022717903923  0.7510148392469 1.0
A      1  0.3880799375293  0.3014540667400  0.9192385596573 1.0
A      1  0.1103181553151  0.4020741631069  0.0837893427209 1.0
A      1  0.2214895905567  0.3989715028117  0.2476742984800 1.0
A      1  0.1086118235893  0.3987124375934  0.4172473082039 1.0
A      1  0.2226397615798  0.4007884451289  0.5830848646695 1.0
A      1  0.1111630763575  0.4019618865973  0.7512756645850 1.0
A      1  0.2221550556502  0.4018647573613  0.9185778491505 1.0
A      1  0.9445816181191  0.5029714378603  0.0847884159539 1.0
A      1  0.0568011257455  0.5016214905694  0.2512706686055 1.0
A      1  0.9484662365488  0.5045040630608  0.4183874677929 1.0
A      1  0.0586015014911  0.5022736448986  0.5847880779073 1.0
A      1  0.9454401790267  0.5034508425203  0.7517953929106 1.0
A      1  0.0561581823535  0.5024320561633  0.9177506807818 1.0
A      1  0.7776535177606  0.2029394346383  0.0850176736548 1.0
A      1  0.8884535452342  0.2021419148348  0.2515466414123 1.0
A      1  0.7774364908746  0.2021957500771  0.4182892689815 1.0
A      1  0.8887011405197  0.2028962846447  0.5847933756897 1.0
A      1  0.7779784272164  0.2036165306525  0.7514394263648 1.0
A      1  0.8888720299132  0.2026339204865  0.9182203370676 1.0
A      1  0.6109776019820  0.3023068400558  0.0843690664985 1.0
A      1  0.7218067945917  0.3031337644529  0.2517306748817 1.0
A      1  0.6039555914466  0.2870108209713  0.4179293531429 1.0
A      1  0.7213033791055  0.3040520246171  0.5853677143814 1.0
A      1  0.6111486529746  0.3040844559176  0.7508977313602 1.0
A      1  0.7223721984418  0.3030178722016  0.9180363361219 1.0
A      1  0.4424018638248  0.4024355169958  0.0839837918841 1.0
A      1  0.5505660353233  0.4021306782846  0.2462505372564 1.0
A      1  0.4445153195721  0.4000993388408  0.7579251404708 1.0
A      1  0.5560079808465  0.4027055911100  0.9194582626917 1.0
A      1  0.2778112655427  0.5018646356937  0.0855097816291 1.0
A      1  0.3901198452449  0.5053595015996  0.2571596959818 1.0
A      1  0.2682671670563  0.4946007004407  0.4107430589986 1.0
A      1  0.2759470762540  0.5022134835010  0.7544275088863 1.0
A      1  0.3886520224816  0.5030272551964  0.9184148144853 1.0
A      1  0.1109967938839  0.6021888522840  0.0845677936716 1.0
A      1  0.2220446554958  0.6021081873175  0.2498785211588 1.0
A      1  0.1126379786007  0.6030802781698  0.4185896059370 1.0
A      1  0.2297569696605  0.5990417982393  0.5849562266238 1.0
A      1  0.1119585073507  0.6027918541973  0.7510976264896 1.0
A      1  0.2222057853619  0.6025102783812  0.9191040679784 1.0
A      1  0.9450904626466  0.7030399563639  0.0849626225905 1.0
A      1  0.0555728480766  0.7016081248844  0.2516440604016 1.0
A      1  0.9440295439179  0.7022280274850  0.4184142034038 1.0
A      1  0.0577843024925  0.7013040899217  0.5849041336598 1.0
A      1  0.9456685765014  0.7034857449756  0.7514657337612 1.0
A      1  0.0562421747271  0.7025768893425  0.9181014691718 1.0
A      1  0.7779791630716  0.4026729179267  0.0840630938212 1.0
A      1  0.8906215026433  0.4023669025330  0.2501624813403 1.0
A      1  0.7943850843428  0.3995990062443  0.4202496295651 1.0
A      1  0.8923957394511  0.4026376894699  0.5874380138741 1.0
A      1  0.7789384180352  0.4031507368800  0.7527817857517 1.0
A      1  0.8895789834406  0.4029110272701  0.9183399520617 1.0
A      1  0.6110413520839  0.5030203182602  0.0827064473906 1.0
A      1  0.7243539467777  0.5073281226782  0.2452120832935 1.0
A      1  0.7266283790576  0.5071993482065  0.5913660335755 1.0
A      1  0.6118445668515  0.5031915035662  0.7534976249602 1.0
A      1  0.7229879640381  0.5035516207539  0.9183019934296 1.0
A      1  0.4437534831132  0.6021347528723  0.0836436681544 1.0
A      1  0.5558568208936  0.6067023327124  0.2446121607842 1.0
A      1  0.4427630893365  0.5992997113481  0.7458683950758 1.0
A      1  0.5550538021111  0.6034389668466  0.9169651995360 1.0
A      1  0.2778598592920  0.7023291171233  0.0840384821408 1.0
A      1  0.3887360783623  0.7034232342244  0.2493522360747 1.0
A      1  0.2851625121083  0.6952921104208  0.4188362929312 1.0
A      1  0.3901232875072  0.7155250226096  0.5911804102408 1.0
A      1  0.2777787786402  0.7026467832931  0.7527603079558 1.0
A      1  0.3894477110936  0.7022882683886  0.9170950311035 1.0
A      1  0.1114638519993  0.8021293645527  0.0850509211246 1.0
A      1  0.2223813158164  0.8005603800149  0.2522563758510 1.0
A      1  0.1124793078615  0.8005180089388  0.4180894953944 1.0
A      1  0.2219601126172  0.8013350112451  0.5844996692215 1.0
A      1  0.1116927775317  0.8028351055019  0.7516352365467 1.0
A      1  0.2225251848698  0.8025314571188  0.9183343849481 1.0
A      1  0.9448489883691  0.9028619691914  0.0848089607829 1.0
A      1  0.0555868145108  0.9011017088400  0.2514116582352 1.0
A      1  0.9452072831221  0.9017203166485  0.4180880807460 1.0
A      1  0.0560266872925  0.9016684239980  0.5848685314420 1.0
A      1  0.9452643297093  0.9034842182764  0.7518102344820 1.0
A      1  0.0558849262297  0.9022921776420  0.9183134226042 1.0
A      1  0.7790006324904  0.6044710259433  0.0830895022137 1.0
A      1  0.8896073377791  0.6028456221583  0.2521790345483 1.0
A      1  0.7724016066949  0.5980425918412  0.4183888934365 1.0
A      1  0.8913192988142  0.6031361413382  0.5846099756910 1.0
A      1  0.7793718865889  0.6051493819693  0.7536254753961 1.0
A      1  0.8902502360109  0.6030376317194  0.9182635127972 1.0
A      1  0.6121620595933  0.7038086503912  0.0828182147758 1.0
A      1  0.7228234760613  0.7044274907282  0.2512989871748 1.0
A      1  0.6119133058517  0.7086701204332  0.4185583360604 1.0
A      1  0.7265480355594  0.7062904881715  0.5855553144538 1.0
A      1  0.6129065348870  0.7057420837106  0.7549731298607 1.0
A      1  0.7233275413010  0.7039308648271  0.9186456608305 1.0
A      1  0.4448610754735  0.8022341176073  0.0841179315909 1.0
A      1  0.5555911780974  0.8039164265787  0.2507296070926 1.0
A      1  0.4454448122442  0.8009867917940  0.4188802684079 1.0
A      1  0.5577422899513  0.8071938310737  0.5867622697305 1.0
A      1  0.4465757590144  0.8044124803212  0.7549040853328 1.0
A      1  0.5562713750040  0.8042280740543  0.9193475205799 1.0
A      1  0.2778177160008  0.9017152314056  0.0850661457394 1.0
A      1  0.3886068248902  0.9013703125521  0.2512356932245 1.0
A      1  0.2783029227984  0.8986386407657  0.4185576853430 1.0
A      1  0.3891724305161  0.9066849554486  0.5857438068877 1.0
A      1  0.2785177032544  0.9020497119306  0.7514378970575 1.0
A      1  0.3887326770434  0.9028331857170  0.9188533898329 1.0
A      1  0.1110931259572  0.0019461865577  0.0846792102878 1.0
A      1  0.2215988309159  0.9999325519519  0.2513547546281 1.0
A      1  0.1109967022768  0.9999227464088  0.4180498025803 1.0
A      1  0.2215303754929  0.0010811649915  0.5849500609974 1.0
A      1  0.1114264394528  0.0023491663451  0.7515452732052 1.0
A      1  0.2221316328896  0.0019297746083  0.9179583396331 1.0
A      1  0.7785552487696  0.8038409885482  0.0849519932621 1.0
A      1  0.8893531710286  0.8025967830274  0.2513215100516 1.0
A      1  0.7792960142232  0.8025228940938  0.4181297665990 1.0
A      1  0.8910972592932  0.8033481365121  0.5852191173419 1.0
A      1  0.7793160852872  0.8048026867940  0.7521066709142 1.0
A      1  0.8897126294617  0.8028779165630  0.9183691192244 1.0
A      1  0.6117912174363  0.9032384662572  0.0848964623966 1.0
A      1  0.7224436139052  0.9032443404932  0.2517303164470 1.0
A      1  0.6120699527580  0.9028575196900  0.4182826181985 1.0
A      1  0.7236265385768  0.9045113542123  0.5849647969243 1.0
A      1  0.6126789111876  0.9048773035034  0.7525641360863 1.0
A      1  0.7229566793536  0.9035719845546  0.9185857179158 1.0
A      1  0.4446390904619  0.0017983863690  0.0845038876854 1.0
A      1  0.5550974308677  0.0020713025887  0.2507812710976 1.0
A      1  0.4441749502191  0.9989446680773  0.4177300078554 1.0
A      1  0.5558592606869  0.0042523855410  0.5857836058506 1.0
A      1  0.4451644321511  0.0032002238080  0.7524964644892 1.0
A      1  0.5557817331019  0.0033885681964  0.9184664548497 1.0
A      1  0.7780747027526  0.0032973420971  0.0850289513769 1.0
A      1  0.8887766804445  0.0021133868517  0.2513460322818 1.0
A      1  0.7787467872817  0.0023250130711  0.4181688125060 1.0
A      1  0.8893051776075  0.0028420301916  0.5850214378756 1.0
A      1  0.7785470776774  0.0041862998455  0.7516482357129 1.0
A      1  0.8891796102559  0.0027552805548  0.9182871112125 1.0
END
