TITL AB-20764-5019-403 0.0000000000 4458.8459578500 -1495.2482494822 0 0  183 (P1) n - 1
REM
REM Run started: at Fri Oct 6 15:34:28 BST 2023 in /home/michal/install/eddp/airss/examples/1.11
REM pp3 from code version ## 0.9.3 July 2022 commit b0220bf5cbf550a3b7
REM
REM
REM
REM Total runtime: s
REM
REM
REM ./AB.cell (a186c3e4acc5915692489c59fabd1559)
REM ## AIRSS Version 0.9.3 July 2022 commit b0220bf5cbf550a3b7
REM compiler GCC version 11.4.0
REM options -cpp -imultiarch x86_64-linux-gnu -mtune=generic -march=x86-64 -g -Og -fpre-include=/usr/include/finclude/math-vector-fortran.h
REM cmdline: airss.pl -pp3 max 100 -seed AB 
REM seed 43715794 2019229072 -640168227 247909817 -135795933 -1462223078 -991670721 -2072396084
REM
REM AB.pp (46f9ffe235eb1beff4ce53cde2d82919)
REM 
CELL 1.54180   16.99142   16.35000   16.05000   90.00000   90.00000   90.00000
LATT -1
SFAC A  B  
A      1  0.9438866514065  0.1003632038644  0.0819679497429 1.0
A      1  0.0549112110917  0.1015168290868  0.2484139656634 1.0
A      1  0.5962385309609  0.4904653705845  0.4112716532487 1.0
A      1  0.5648109214889  0.3894531389763  0.5864104642519 1.0
A      1  0.4151828347292  0.4415080832414  0.4873423026899 1.0
A      1  0.5169142209520  0.5759114922337  0.5829882022747 1.0
A      1  0.4397658673587  0.6120021490826  0.4079863791353 1.0
B      2  0.6507003436424  0.5977322147473  0.5137621364376 1.0
B      2  0.4737417034020  0.3542416477375  0.3703188531993 1.0
B      2  0.6520832160773  0.6005052862879  0.6465098002178 1.0
B      2  0.3644334519601  0.5322568889852  0.6163805141704 1.0
A      1  0.9453412897899  0.1004188660326  0.4148247535907 1.0
A      1  0.0565445644679  0.1011286882321  0.5818799466694 1.0
A      1  0.9449880796598  0.0995754152088  0.7491533726215 1.0
A      1  0.0549149726666  0.1006377570581  0.9156044130657 1.0
A      1  0.2768091477101  0.1010151661694  0.0824502870763 1.0
A      1  0.3880589908789  0.1009885983902  0.2488678758673 1.0
A      1  0.2779259205941  0.1026655584317  0.4155966444891 1.0
A      1  0.3889933123658  0.0952332080791  0.5830250074152 1.0
A      1  0.2778166028758  0.1006964310258  0.7488489106674 1.0
A      1  0.3876366051645  0.0997860264749  0.9164077123893 1.0
A      1  0.1102740845781  0.2008857982985  0.0820848985852 1.0
A      1  0.2214314656229  0.2016397922014  0.2490354577810 1.0
A      1  0.1123841951856  0.2017475698191  0.4149306148251 1.0
A      1  0.2223127599818  0.2006485563569  0.5816987217292 1.0
A      1  0.1111754323400  0.2000207430567  0.7490322294792 1.0
A      1  0.2214567537145  0.2002486042305  0.9157040475625 1.0
A      1  0.9436516129562  0.3004063358833  0.0819422014465 1.0
A      1  0.0546377567705  0.3011042414526  0.2483190467672 1.0
A      1  0.9447821651575  0.2994892868778  0.4147946988545 1.0
A      1  0.0593311259064  0.3007090930099  0.5820948565539 1.0
A      1  0.9452164093435  0.2991295123797  0.7491984809383 1.0
A      1  0.0551796562700  0.3004741256737  0.9153482921122 1.0
A      1  0.6104497490939  0.0998216028130  0.0827450790679 1.0
A      1  0.7212911980545  0.1001817465149  0.2486016702824 1.0
A      1  0.6113322491722  0.0983715430793  0.4157121975515 1.0
A      1  0.7230522784597  0.0980011498950  0.5822703881568 1.0
A      1  0.6117611437230  0.0972608348421  0.7494607751329 1.0
A      1  0.7216787280368  0.0996154386092  0.9160387175125 1.0
A      1  0.4437029173707  0.2003918295183  0.0816514383388 1.0
A      1  0.5544083045131  0.2002203774191  0.2492522485480 1.0
A      1  0.4446790750687  0.2003167981193  0.4172216364141 1.0
A      1  0.5567560134265  0.1939504176887  0.5836830902467 1.0
A      1  0.4455796574704  0.1978357813139  0.7524945497950 1.0
A      1  0.5551805160700  0.1983587609052  0.9168213687465 1.0
A      1  0.2764590883766  0.3007045590885  0.0811946920940 1.0
A      1  0.3870814575530  0.2991640975808  0.2461909143504 1.0
A      1  0.2825592228485  0.3054858088299  0.4153599208319 1.0
A      1  0.3894273380484  0.2874422142408  0.5894663079334 1.0
A      1  0.2764812520124  0.3002909843983  0.7501376613908 1.0
A      1  0.3880314321956  0.3001895437930  0.9145433884546 1.0
A      1  0.1097212854935  0.4010420742151  0.0817724000630 1.0
A      1  0.2205763947191  0.4008509020563  0.2475802070619 1.0
A      1  0.1099399550216  0.4003460194609  0.4155879654784 1.0
A      1  0.2307650445945  0.4038059729339  0.5812954224609 1.0
A      1  0.1109453666469  0.4004730764307  0.7478557106967 1.0
A      1  0.2208730321061  0.4005595733385  0.9160120143004 1.0
A      1  0.9431693105731  0.5005123467484  0.0818613414968 1.0
A      1  0.0544182950200  0.5012117711071  0.2487178724648 1.0
A      1  0.9423913491385  0.4997484089522  0.4152806848125 1.0
A      1  0.0572418134301  0.5004057043307  0.5814061762911 1.0
A      1  0.9434863603471  0.4995815033836  0.7480646956395 1.0
A      1  0.0544162793651  0.5004246843201  0.9146792540129 1.0
A      1  0.7774633390664  0.1996860862326  0.0821075609544 1.0
A      1  0.8884551275562  0.2004724923844  0.2482389330136 1.0
A      1  0.7792497281128  0.1981610218521  0.4148600074184 1.0
A      1  0.8917209646094  0.1987472274161  0.5822263632774 1.0
A      1  0.7788798182162  0.1976709925359  0.7499236844801 1.0
A      1  0.8886776042445  0.2001089059622  0.9157813969403 1.0
A      1  0.6108346405149  0.2988841526796  0.0807631349777 1.0
A      1  0.7217972226314  0.2991862153413  0.2479929840935 1.0
A      1  0.6133336250939  0.2954920264615  0.4163631053310 1.0
A      1  0.7266993318730  0.2927025492645  0.5829537307127 1.0
A      1  0.6117725253008  0.2957752813434  0.7517673137345 1.0
A      1  0.7220421337581  0.2993847748311  0.9163910814262 1.0
A      1  0.4427129922083  0.4004598511749  0.0816273516595 1.0
A      1  0.5567106353716  0.3988919361807  0.2417479324540 1.0
A      1  0.4412825623961  0.4027942571134  0.7426471420443 1.0
A      1  0.5533183367619  0.3980941599849  0.9159748134904 1.0
A      1  0.2767228068892  0.5009990026907  0.0830081528115 1.0
A      1  0.3891111732708  0.4971881203946  0.2542024975846 1.0
A      1  0.2655552322240  0.5086612995460  0.4094238201450 1.0
A      1  0.2749896711811  0.5012244250072  0.7505342574957 1.0
A      1  0.3872017974429  0.4993242710215  0.9163343108238 1.0
A      1  0.1089677927731  0.6007955430088  0.0810724132703 1.0
A      1  0.2197140696667  0.6034421724738  0.2453126333433 1.0
A      1  0.1050216449327  0.6038448418176  0.4144461152454 1.0
A      1  0.2208526763708  0.6015115299778  0.5812792646058 1.0
A      1  0.1091953579097  0.6008351743015  0.7484685301597 1.0
A      1  0.2206885518267  0.6007402302690  0.9157760016368 1.0
A      1  0.9427207356822  0.7003630137834  0.0814184558670 1.0
A      1  0.0533040942618  0.7019943224839  0.2477681234877 1.0
A      1  0.9409381338781  0.7013163571042  0.4151272524543 1.0
A      1  0.0547346706945  0.7011426392579  0.5819220417227 1.0
A      1  0.9427273880601  0.7001521287627  0.7481300024779 1.0
A      1  0.0540885342238  0.7007298553314  0.9148103957388 1.0
A      1  0.7767907542393  0.4000820314039  0.0823809588096 1.0
A      1  0.8880276229285  0.4004901900669  0.2482607486055 1.0
A      1  0.7767870625599  0.3978569377102  0.4133128496796 1.0
A      1  0.8945793392955  0.3964878620033  0.5818925453132 1.0
A      1  0.7782417182378  0.3970595010861  0.7507261252159 1.0
A      1  0.8885659505305  0.4000260607153  0.9157849292964 1.0
A      1  0.6104245975557  0.5003058630603  0.0804131173593 1.0
A      1  0.7203574339220  0.5001836397755  0.2491831893468 1.0
A      1  0.7321120228379  0.4855826652404  0.5820096967256 1.0
A      1  0.6080258743042  0.4947380308972  0.7537184141450 1.0
A      1  0.7215220785917  0.4994762503170  0.9155530570456 1.0
A      1  0.4422340933225  0.6000125246703  0.0830329726472 1.0
A      1  0.5541451876501  0.6003515696839  0.2463893917394 1.0
A      1  0.4394138129801  0.6021274998603  0.7552543138448 1.0
A      1  0.5537511097157  0.5996405557974  0.9172993067964 1.0
A      1  0.2753045239715  0.7017618083183  0.0807022278898 1.0
A      1  0.3855523859389  0.7029594769226  0.2451038225683 1.0
A      1  0.2731692460750  0.7050434627564  0.4134734125392 1.0
A      1  0.3816388793236  0.7030501993086  0.5815015561989 1.0
A      1  0.2746747721488  0.7014016459078  0.7492459969987 1.0
A      1  0.3867612952766  0.7012922909671  0.9172191327739 1.0
A      1  0.1092278411749  0.8009434615299  0.0814077815949 1.0
A      1  0.2196834180724  0.8030341274708  0.2476655057484 1.0
A      1  0.1082430432058  0.8025519388349  0.4147857489637 1.0
A      1  0.2192764802984  0.8024381479304  0.5817973737213 1.0
A      1  0.1092306556058  0.8009551290613  0.7485522239759 1.0
A      1  0.2203436942893  0.8012907352030  0.9150007870626 1.0
A      1  0.9433502357364  0.9005959278238  0.0816145600865 1.0
A      1  0.0541751262770  0.9020748281737  0.2479959560007 1.0
A      1  0.9439981513129  0.9016690793872  0.4143015209993 1.0
A      1  0.0559605562884  0.9026885254645  0.5818609602693 1.0
A      1  0.9442319147131  0.9006374006866  0.7492595496702 1.0
A      1  0.0544826784193  0.9009859041144  0.9153607930033 1.0
A      1  0.7765892253390  0.5999823751716  0.0819394436909 1.0
A      1  0.8874799634592  0.6005574522223  0.2486388880046 1.0
A      1  0.7749638202909  0.5988341877067  0.4145938593676 1.0
A      1  0.8893119947226  0.5994821324797  0.5814973853380 1.0
A      1  0.7762365129445  0.5992005377965  0.7480781393867 1.0
A      1  0.8877448356256  0.6000830339200  0.9147445655754 1.0
A      1  0.6096108649650  0.7006551900268  0.0817002290528 1.0
A      1  0.7213109684943  0.7006510172036  0.2470661416523 1.0
A      1  0.6081633652576  0.7046595517153  0.4084631713343 1.0
A      1  0.7329931527022  0.7118213158131  0.5796801314130 1.0
A      1  0.6071263822062  0.7028764477703  0.7550190356478 1.0
A      1  0.7212698161207  0.6997628846584  0.9159879042810 1.0
A      1  0.4426926440011  0.8013586117444  0.0815152748690 1.0
A      1  0.5530091194603  0.8018035744759  0.2464561375484 1.0
A      1  0.4422977957595  0.8050304051661  0.4145624963534 1.0
A      1  0.5556778223102  0.7902489156406  0.5817578101651 1.0
A      1  0.4421085182437  0.8005806357666  0.7489455075753 1.0
A      1  0.5534616155327  0.8011907002071  0.9170697710249 1.0
A      1  0.2762523165501  0.9013313377263  0.0816573846455 1.0
A      1  0.3868063910228  0.9020528689477  0.2480952656743 1.0
A      1  0.2761871771241  0.9029377114005  0.4152804984499 1.0
A      1  0.3883466530085  0.8990738852721  0.5822722476009 1.0
A      1  0.2765211870702  0.9009067298542  0.7484990200083 1.0
A      1  0.3871101902120  0.9006982867892  0.9155049932617 1.0
A      1  0.1101696598725  0.0009316683041  0.0818849618165 1.0
A      1  0.2210754387314  0.0022126011635  0.2486177870077 1.0
A      1  0.1109600113080  0.0019631297283  0.4149418653421 1.0
A      1  0.2219683403396  0.0012532047594  0.5820464880512 1.0
A      1  0.1109716686826  0.0007002485967  0.7488939727093 1.0
A      1  0.2211162632338  0.0008976331165  0.9153616300764 1.0
A      1  0.7765548277155  0.8004514550372  0.0814924181461 1.0
A      1  0.8878203449560  0.8012521415300  0.2474400881424 1.0
A      1  0.7775205975648  0.8021096898603  0.4121768139045 1.0
A      1  0.8931358637930  0.8041283000695  0.5817719722075 1.0
A      1  0.7774079347540  0.8004817311001  0.7500098853675 1.0
A      1  0.8879751587570  0.8004290611236  0.9153675711552 1.0
A      1  0.6101784840764  0.9007730731556  0.0819140395190 1.0
A      1  0.7206683554760  0.9007896883122  0.2478421884560 1.0
A      1  0.6105233739013  0.9005002321563  0.4154865058552 1.0
A      1  0.7223875987621  0.9027686819746  0.5817808557085 1.0
A      1  0.6103264174037  0.8990157261821  0.7483058480342 1.0
A      1  0.7209698082692  0.9000255953701  0.9154593291743 1.0
A      1  0.4434765522188  0.0007126249587  0.0822037340157 1.0
A      1  0.5543235586536  0.0006189176144  0.2488127461193 1.0
A      1  0.4438062250965  0.0015961003943  0.4150780607540 1.0
A      1  0.5549634785785  0.9956375431655  0.5822744397698 1.0
A      1  0.4440374039564  0.9992204017435  0.7497075727623 1.0
A      1  0.5545168324094  0.9997883075112  0.9157739819808 1.0
A      1  0.7770669067360  0.0001438555122  0.0819514359231 1.0
A      1  0.8878849989848  0.0010389284781  0.2481369230324 1.0
A      1  0.7780431667332  0.0001930146742  0.4146507159931 1.0
A      1  0.8896436130096  0.0012409012791  0.5819038557652 1.0
A      1  0.7781011229395  0.9991596596064  0.7492871905374 1.0
A      1  0.8880903198424  0.0003891588149  0.9156242080938 1.0
END
