TITL AB-20764-5019-229 0.0000000000 4458.8459578500 -1488.4573522225 0 0  183 (P1) n - 1
REM
REM Run started: at Fri Oct 6 15:27:46 BST 2023 in /home/michal/install/eddp/airss/examples/1.11
REM pp3 from code version ## 0.9.3 July 2022 commit b0220bf5cbf550a3b7
REM
REM
REM
REM Total runtime: s
REM
REM
REM ./AB.cell (a186c3e4acc5915692489c59fabd1559)
REM ## AIRSS Version 0.9.3 July 2022 commit b0220bf5cbf550a3b7
REM compiler GCC version 11.4.0
REM options -cpp -imultiarch x86_64-linux-gnu -mtune=generic -march=x86-64 -g -Og -fpre-include=/usr/include/finclude/math-vector-fortran.h
REM cmdline: airss.pl -pp3 max 100 -seed AB 
REM seed 1530954179 2078797080 -987390912 249999841 596738670 1327776475 642927802 -1444875887
REM
REM AB.pp (46f9ffe235eb1beff4ce53cde2d82919)
REM 
CELL 1.54180   16.99142   16.35000   16.05000   90.00000   90.00000   90.00000
LATT -1
SFAC A  B  
A      1  0.9450128027248  0.1001277067389  0.0846593970755 1.0
A      1  0.0554590846776  0.1004143868163  0.2509870682586 1.0
A      1  0.5585904513681  0.3938367352787  0.5831136097725 1.0
A      1  0.4392215606443  0.3960627263212  0.4283704864426 1.0
A      1  0.6191217399648  0.4881253440123  0.4181607451518 1.0
A      1  0.5300157631414  0.5849388576778  0.5935751948711 1.0
A      1  0.4361318926399  0.6077788211336  0.4265402835905 1.0
B      2  0.3724630434361  0.5172578761242  0.6021555869511 1.0
B      2  0.6555083420732  0.6038360404576  0.5134275041897 1.0
B      2  0.4967865510064  0.5025068509776  0.3336509389468 1.0
B      2  0.5003780753814  0.4981643104201  0.8321195309762 1.0
A      1  0.9446466059441  0.0994588074007  0.4178321971076 1.0
A      1  0.0552532185835  0.1005459920266  0.5846030112305 1.0
A      1  0.9445527089696  0.0999540129156  0.7515344528550 1.0
A      1  0.0555922752805  0.1006516958510  0.9181546868561 1.0
A      1  0.2776717165395  0.1009785480106  0.0842148799074 1.0
A      1  0.3880401672166  0.1008530330771  0.2502519544757 1.0
A      1  0.2773525126700  0.1002583279836  0.4174826365802 1.0
A      1  0.3884645304712  0.0978333994468  0.5842723430324 1.0
A      1  0.2777498560093  0.1005409264786  0.7511171148217 1.0
A      1  0.3884496626116  0.1014813392062  0.9177597005810 1.0
A      1  0.1111306707601  0.2006468015985  0.0844179601862 1.0
A      1  0.2220521109889  0.2004131605004  0.2503069560967 1.0
A      1  0.1109043175214  0.1994915442554  0.4172870858284 1.0
A      1  0.2211837032983  0.1991151110584  0.5842558345537 1.0
A      1  0.1109333323312  0.1996321122560  0.7516245176479 1.0
A      1  0.2223797995904  0.2008357801212  0.9181296640839 1.0
A      1  0.9438935531325  0.2998018737977  0.0845915157969 1.0
A      1  0.0549838072563  0.2998244983548  0.2511515490575 1.0
A      1  0.9462546125844  0.2986755992968  0.4177681767661 1.0
A      1  0.0584136660457  0.3000525615599  0.5845030268588 1.0
A      1  0.9459212088165  0.2987758783971  0.7515529994428 1.0
A      1  0.0551571354615  0.3000127881266  0.9178940843200 1.0
A      1  0.6113102362350  0.0991992051160  0.0841422751572 1.0
A      1  0.7221559210835  0.0995943485447  0.2512194723573 1.0
A      1  0.6113681324399  0.0980270926904  0.4179918260091 1.0
A      1  0.7222077217633  0.0993018281730  0.5843817866965 1.0
A      1  0.6113169288874  0.0990884827809  0.7507098541928 1.0
A      1  0.7223602642246  0.0997229245785  0.9180779259793 1.0
A      1  0.4442810785690  0.2016399843547  0.0838270621239 1.0
A      1  0.5552422420105  0.1973616381218  0.2505555624573 1.0
A      1  0.4442193008444  0.1981955969394  0.4167851796137 1.0
A      1  0.5553389246280  0.1969469579207  0.5844491284568 1.0
A      1  0.4443491059293  0.1999551270924  0.7508839022928 1.0
A      1  0.5556485293991  0.1974653609868  0.9175008955250 1.0
A      1  0.2778193497092  0.3015065232491  0.0840272074003 1.0
A      1  0.3890010227755  0.3017873439569  0.2525067432190 1.0
A      1  0.2754371111446  0.2989223730671  0.4168321502728 1.0
A      1  0.3863554094642  0.2929205335894  0.5828730803060 1.0
A      1  0.2753687472833  0.2991221849919  0.7510609348821 1.0
A      1  0.3896525542389  0.3029696620739  0.9145602390802 1.0
A      1  0.1087172435417  0.4000198199293  0.0844088093042 1.0
A      1  0.2189676878132  0.3993360132179  0.2510650514558 1.0
A      1  0.1112754267359  0.4003843484542  0.4184346375433 1.0
A      1  0.2273258159848  0.4017176754272  0.5843953792176 1.0
A      1  0.1106176244336  0.4001870941574  0.7506318294463 1.0
A      1  0.2195683044307  0.3996960333811  0.9173510553152 1.0
A      1  0.9431970232908  0.5003946864903  0.0846734078282 1.0
A      1  0.0546477972477  0.5004745756447  0.2513345947756 1.0
A      1  0.9451706780015  0.4997924054917  0.4181362189015 1.0
A      1  0.0579752904514  0.5002519956782  0.5846587128040 1.0
A      1  0.9449344096017  0.4998761361201  0.7511843999563 1.0
A      1  0.0548952806125  0.5006634949237  0.9179045330370 1.0
A      1  0.7790035573504  0.1988821477791  0.0847622064692 1.0
A      1  0.8894083086494  0.1996250284199  0.2513965825753 1.0
A      1  0.7788423057762  0.1979008777339  0.4179397117954 1.0
A      1  0.8900112618781  0.1996537424472  0.5846624705327 1.0
A      1  0.7780970674128  0.1986647337160  0.7512000609435 1.0
A      1  0.8895069360697  0.1997254131724  0.9178867164316 1.0
A      1  0.6136063043091  0.2958989794933  0.0848420611461 1.0
A      1  0.7242942632522  0.2985310575559  0.2514826396058 1.0
A      1  0.6114346096963  0.2948885922426  0.4164468110473 1.0
A      1  0.7238284905752  0.2969699225169  0.5845912235756 1.0
A      1  0.6105006297172  0.2997063538054  0.7521282811872 1.0
A      1  0.7246108998395  0.2981319642229  0.9179815483502 1.0
A      1  0.4439162359758  0.4007898938521  0.0838821983372 1.0
A      1  0.5590291716765  0.3929842783532  0.2453110690940 1.0
A      1  0.4365214536196  0.3994517741359  0.7345452484020 1.0
A      1  0.5604191489331  0.3923534630434  0.9242381078374 1.0
A      1  0.2712655064283  0.5010796273671  0.0834546603200 1.0
A      1  0.3780910609971  0.5007723618125  0.2432310499178 1.0
A      1  0.2776368880158  0.5009391929899  0.4178657317228 1.0
A      1  0.2749232355271  0.5012057944216  0.7514382418595 1.0
A      1  0.3802037674991  0.5017614151429  0.9233834939926 1.0
A      1  0.1082462681369  0.6013608254083  0.0847135872444 1.0
A      1  0.2186422242067  0.6022258144552  0.2516160601813 1.0
A      1  0.1101715087480  0.6006016276838  0.4184217191074 1.0
A      1  0.2241185876640  0.6001458311121  0.5847683814472 1.0
A      1  0.1092798967432  0.6009700344158  0.7510934908306 1.0
A      1  0.2190175118802  0.6027049563797  0.9178134286321 1.0
A      1  0.9433300444923  0.7008963473522  0.0850572064840 1.0
A      1  0.0542800415330  0.7013712640322  0.2516575851737 1.0
A      1  0.9441282700041  0.7007230709001  0.4182582849636 1.0
A      1  0.0565089739903  0.7007023299838  0.5847469945947 1.0
A      1  0.9441406296776  0.7012562039087  0.7514201872564 1.0
A      1  0.0544545486198  0.7015792862130  0.9180621272830 1.0
A      1  0.7773534042970  0.3997334495687  0.0842925838784 1.0
A      1  0.8894464570357  0.3999617077258  0.2508295485957 1.0
A      1  0.7822668046356  0.3962223556666  0.4177538265769 1.0
A      1  0.8941283754185  0.3977677211271  0.5848228216790 1.0
A      1  0.7817206087440  0.3963721896902  0.7526636114465 1.0
A      1  0.8895757420760  0.4002340466094  0.9185377248952 1.0
A      1  0.6113547031618  0.5000775508989  0.0837736455966 1.0
A      1  0.7227889357269  0.4998124642572  0.2506405280426 1.0
A      1  0.7322874538784  0.4926898297444  0.5866760765494 1.0
A      1  0.6217089981632  0.4976420785404  0.7442012246052 1.0
A      1  0.7221084341272  0.4999762030963  0.9170439430069 1.0
A      1  0.4431229258625  0.6014981004505  0.0840610929590 1.0
A      1  0.5596043234021  0.6072999202899  0.2420481417448 1.0
A      1  0.4311828198543  0.6087326597378  0.7526326158869 1.0
A      1  0.5580152326026  0.6070722714180  0.9235611224952 1.0
A      1  0.2763953388279  0.7007050378966  0.0854508247857 1.0
A      1  0.3884449748961  0.7001597091669  0.2523896839987 1.0
A      1  0.2733989783320  0.7031988254568  0.4176837785335 1.0
A      1  0.3825611185787  0.7055087380427  0.5868499743503 1.0
A      1  0.2713367452893  0.7044925190641  0.7525149409836 1.0
A      1  0.3867022691702  0.7028320871524  0.9194608565926 1.0
A      1  0.1102176987241  0.8008435795759  0.0849862250470 1.0
A      1  0.2212621821619  0.8015793226642  0.2510215666685 1.0
A      1  0.1091560426594  0.8015106440577  0.4177775894646 1.0
A      1  0.2194403385711  0.8027977958420  0.5846333632995 1.0
A      1  0.1086468980775  0.8023077317261  0.7517334359575 1.0
A      1  0.2206706232288  0.8024432901657  0.9189779837673 1.0
A      1  0.9446527051816  0.9008620157570  0.0850848768566 1.0
A      1  0.0551010745151  0.9011510794031  0.2512862318861 1.0
A      1  0.9437162460973  0.9005634777802  0.4178543568053 1.0
A      1  0.0551884471619  0.9019958065172  0.5846300679479 1.0
A      1  0.9442822937492  0.9016165609940  0.7519838113144 1.0
A      1  0.0551227029635  0.9016030890557  0.9185151754171 1.0
A      1  0.7769844017847  0.6006251085164  0.0840174675374 1.0
A      1  0.8890836895346  0.6002986061614  0.2510073367594 1.0
A      1  0.7797252074913  0.6000472054356  0.4169800554559 1.0
A      1  0.8914668162286  0.6003800018675  0.5844856055716 1.0
A      1  0.7806645682163  0.6006389065633  0.7522550291357 1.0
A      1  0.8891708976907  0.6005309602073  0.9183981684109 1.0
A      1  0.6131245175744  0.7052350536900  0.0830210023793 1.0
A      1  0.7243108051156  0.7017036011665  0.2502940885233 1.0
A      1  0.6053374240088  0.7044301108132  0.4082034805082 1.0
A      1  0.7302096015370  0.7080644725794  0.5929851420827 1.0
A      1  0.6086795655330  0.6962307538361  0.7503663341065 1.0
A      1  0.7235090149602  0.7015156521048  0.9172243289062 1.0
A      1  0.4436999249184  0.8011502441885  0.0841460860039 1.0
A      1  0.5538370262396  0.8043663135809  0.2481133772820 1.0
A      1  0.4416594169888  0.8036345868512  0.4174648143166 1.0
A      1  0.5556411821357  0.7933366992975  0.5826892829871 1.0
A      1  0.4435075163144  0.8031907744236  0.7514321461973 1.0
A      1  0.5549383880890  0.8025064337090  0.9167185332686 1.0
A      1  0.2772168125193  0.9010407198401  0.0845145853198 1.0
A      1  0.3873122863778  0.9012944944682  0.2505047917537 1.0
A      1  0.2762502830273  0.9016899827550  0.4178657960408 1.0
A      1  0.3882367618889  0.9010813148420  0.5845813526472 1.0
A      1  0.2768904687789  0.9018596197789  0.7513320618970 1.0
A      1  0.3878333492810  0.9018740870011  0.9180129328761 1.0
A      1  0.1112104917933  0.0007561492973  0.0846384488314 1.0
A      1  0.2215488619400  0.0010913364282  0.2509672950731 1.0
A      1  0.1105609560194  0.0006333112665  0.4177827827582 1.0
A      1  0.2214707637558  0.0009679097113  0.5845416757284 1.0
A      1  0.1109313681279  0.0010207571464  0.7514579332711 1.0
A      1  0.2218195862050  0.0015391433118  0.9179636605808 1.0
A      1  0.7785876178793  0.8017064975319  0.0844687647544 1.0
A      1  0.8887877928790  0.8011379581864  0.2519024126919 1.0
A      1  0.7766279134558  0.7993880436461  0.4191428348195 1.0
A      1  0.8919244925320  0.8025523004199  0.5851899601209 1.0
A      1  0.7788323793996  0.8027387592016  0.7548869541422 1.0
A      1  0.8894705451327  0.8012090341996  0.9188523085775 1.0
A      1  0.6111465532677  0.9021046483913  0.0836421897040 1.0
A      1  0.7217777421241  0.9004415699885  0.2513679656373 1.0
A      1  0.6104720205177  0.9004196030924  0.4178938805779 1.0
A      1  0.7222733051198  0.9018302616012  0.5848117803687 1.0
A      1  0.6111931804391  0.8984093048685  0.7499358685619 1.0
A      1  0.7218963929547  0.9011727736211  0.9185476239859 1.0
A      1  0.4441439280560  0.0011655943342  0.0840995301327 1.0
A      1  0.5547904201213  0.0005754442254  0.2509196050230 1.0
A      1  0.4438282153684  0.0006102647134  0.4170625145953 1.0
A      1  0.5550141090313  0.9974163625043  0.5844714274231 1.0
A      1  0.4444302242000  0.0009869919569  0.7514075831524 1.0
A      1  0.5551069302738  0.0000960864986  0.9169436213058 1.0
A      1  0.7782507386171  0.0003610576816  0.0849109179687 1.0
A      1  0.8886837067296  0.0004877732485  0.2512552453315 1.0
A      1  0.7778694654920  0.9991880522594  0.4177234007573 1.0
A      1  0.8887356453958  0.0009582573250  0.5847614242012 1.0
A      1  0.7776849609304  0.0004414032030  0.7516158161674 1.0
A      1  0.8887227180251  0.0005982864351  0.9183764038944 1.0
END
