TITL AB-20764-5019-514 0.0000000000 4458.8459578500 -1496.6250270958 0 0  183 (P1) n - 1
REM
REM Run started: at Fri Oct 6 15:38:30 BST 2023 in /home/michal/install/eddp/airss/examples/1.11
REM pp3 from code version ## 0.9.3 July 2022 commit b0220bf5cbf550a3b7
REM
REM
REM
REM Total runtime: s
REM
REM
REM ./AB.cell (a186c3e4acc5915692489c59fabd1559)
REM ## AIRSS Version 0.9.3 July 2022 commit b0220bf5cbf550a3b7
REM compiler GCC version 11.4.0
REM options -cpp -imultiarch x86_64-linux-gnu -mtune=generic -march=x86-64 -g -Og -fpre-include=/usr/include/finclude/math-vector-fortran.h
REM cmdline: airss.pl -pp3 max 100 -seed AB 
REM seed 1687304699 675626308 285091218 -902261126 1172715429 496431783 1456696215 592397657
REM
REM AB.pp (46f9ffe235eb1beff4ce53cde2d82919)
REM 
CELL 1.54180   16.99142   16.35000   16.05000   90.00000   90.00000   90.00000
LATT -1
SFAC A  B  
A      1  0.9437306082404  0.0998120417540  0.0810916859996 1.0
A      1  0.0548470752446  0.0998433326290  0.2481332849708 1.0
A      1  0.4398129908790  0.4041796851184  0.4095218433331 1.0
A      1  0.6190791928696  0.4974248885761  0.4079439535346 1.0
A      1  0.4696881265779  0.5989286426991  0.4496629238083 1.0
A      1  0.5441784956215  0.4163854496859  0.5710684734188 1.0
A      1  0.3782925965773  0.5002265753882  0.5876337047910 1.0
B      2  0.5150989259516  0.5828850381286  0.6172371598931 1.0
B      2  0.6080061649336  0.6027614701000  0.5375284302042 1.0
B      2  0.3565901830130  0.5990629226774  0.3476156422788 1.0
B      2  0.6622525388445  0.3979645728414  0.6622554764298 1.0
A      1  0.9443142801199  0.0993480764321  0.4143487601479 1.0
A      1  0.0551430046988  0.0994136678057  0.5818698020722 1.0
A      1  0.9431354978806  0.0995186608993  0.7482229647135 1.0
A      1  0.0541392471000  0.1000102355322  0.9149951730704 1.0
A      1  0.2768530697627  0.0998895517950  0.0821005979858 1.0
A      1  0.3882720739210  0.1000526666742  0.2487932956913 1.0
A      1  0.2775118176788  0.1001509685445  0.4151118138262 1.0
A      1  0.3887376721762  0.1005236293111  0.5812696173984 1.0
A      1  0.2760994733757  0.0996888659890  0.7486056947956 1.0
A      1  0.3869883485171  0.0994431819400  0.9151582948734 1.0
A      1  0.1103436868998  0.1997385411343  0.0817979863489 1.0
A      1  0.2212069024659  0.1996620074831  0.2484239588955 1.0
A      1  0.1103069030586  0.1992833034491  0.4152356788749 1.0
A      1  0.2214500198738  0.1993046166109  0.5820792943202 1.0
A      1  0.1102130275762  0.1995547670629  0.7486194713732 1.0
A      1  0.2210204123316  0.1996459127188  0.9153677358339 1.0
A      1  0.9438083786698  0.2995255889818  0.0815869563961 1.0
A      1  0.0551317192123  0.2995678456405  0.2483753695927 1.0
A      1  0.9436654005443  0.2986936503153  0.4147491515335 1.0
A      1  0.0540143409390  0.2987293655650  0.5820963418176 1.0
A      1  0.9443458852260  0.2986186148456  0.7485971526964 1.0
A      1  0.0546143704513  0.2994238261961  0.9156378571617 1.0
A      1  0.6106717969829  0.0995262248431  0.0816522393378 1.0
A      1  0.7215106561170  0.0995522691995  0.2471075562568 1.0
A      1  0.6100598213188  0.1011900661435  0.4153389054216 1.0
A      1  0.7208610461782  0.0978825114183  0.5808487751289 1.0
A      1  0.6092193135243  0.0974699933630  0.7477903372101 1.0
A      1  0.7206773876475  0.1000476741419  0.9140642431744 1.0
A      1  0.4432643097603  0.1992154911234  0.0820736044126 1.0
A      1  0.5552944591873  0.1998889614345  0.2480806054975 1.0
A      1  0.4439005075141  0.2012908669687  0.4152092433315 1.0
A      1  0.5553691729242  0.2045946243651  0.5827777951914 1.0
A      1  0.4412208984952  0.1986014050222  0.7482520873191 1.0
A      1  0.5529621421342  0.1975249106512  0.9179541920671 1.0
A      1  0.2768504810586  0.2999108297900  0.0819466466352 1.0
A      1  0.3880267491527  0.2977387648362  0.2475550268328 1.0
A      1  0.2761362771931  0.2986754603293  0.4153356705223 1.0
A      1  0.3873203234530  0.3012492945268  0.5807720627456 1.0
A      1  0.2763364385407  0.2998849949819  0.7488978567620 1.0
A      1  0.3876999912191  0.2991505360409  0.9142339569967 1.0
A      1  0.1099344873344  0.3997123240807  0.0824470562129 1.0
A      1  0.2216248562368  0.3997236333194  0.2493727884841 1.0
A      1  0.1079859033199  0.3983280163349  0.4155724450724 1.0
A      1  0.2178578422532  0.3975126738681  0.5845143740781 1.0
A      1  0.1086426222559  0.3994709335188  0.7497517176285 1.0
A      1  0.2205248346116  0.3990416359651  0.9161465616694 1.0
A      1  0.9439861888829  0.5003242074443  0.0817493122649 1.0
A      1  0.0561649774821  0.5001856793671  0.2489749660448 1.0
A      1  0.9440789146528  0.5000904596986  0.4147911173275 1.0
A      1  0.0544383743658  0.4996596082216  0.5820816276348 1.0
A      1  0.9441419704836  0.5005530155619  0.7485451651162 1.0
A      1  0.0548203320185  0.5001592429795  0.9160553463287 1.0
A      1  0.7772230267574  0.1996123495391  0.0811635679542 1.0
A      1  0.8887571682567  0.1997629629074  0.2471608446230 1.0
A      1  0.7780552027432  0.1976151543950  0.4110715086389 1.0
A      1  0.8897586827587  0.1977302156945  0.5809958573840 1.0
A      1  0.7759693403894  0.2001540219196  0.7467582201525 1.0
A      1  0.8874992072938  0.1998973161990  0.9144349275001 1.0
A      1  0.6107964929912  0.2995129978983  0.0810754797199 1.0
A      1  0.7221076637071  0.3000821097677  0.2472990627851 1.0
A      1  0.6096423175063  0.3011356829924  0.4144715335516 1.0
A      1  0.7270823841368  0.2928252095739  0.5731811163232 1.0
A      1  0.6055845737585  0.2922389867241  0.7564758246643 1.0
A      1  0.7214358246973  0.2995597096719  0.9157216675990 1.0
A      1  0.4444091642352  0.3975890703032  0.0785103312366 1.0
A      1  0.5559493962895  0.3989661625937  0.2462194872473 1.0
A      1  0.4433241218009  0.4000298179136  0.7478867794979 1.0
A      1  0.5545673797337  0.4006236384519  0.9148197421405 1.0
A      1  0.2755513448631  0.4999216114209  0.0811624790729 1.0
A      1  0.3898226049485  0.4934319704319  0.2391551866643 1.0
A      1  0.2705805568473  0.4952529935635  0.4212888297169 1.0
A      1  0.2730063256695  0.4995793793285  0.7518561202407 1.0
A      1  0.3867559045040  0.4991128302854  0.9163778746656 1.0
A      1  0.1102100496229  0.6002486191678  0.0830620643805 1.0
A      1  0.2242640235812  0.6001985321728  0.2507999880964 1.0
A      1  0.1097041434883  0.6005118053911  0.4157301907768 1.0
A      1  0.2179659091636  0.6012818766889  0.5847238245730 1.0
A      1  0.1081658237559  0.6005160407973  0.7497119756014 1.0
A      1  0.2203190427167  0.6004336804868  0.9164388952726 1.0
A      1  0.9437325081441  0.7003182278241  0.0811722742860 1.0
A      1  0.0561314969931  0.7002891109812  0.2486766043471 1.0
A      1  0.9449501578515  0.7011109199262  0.4143666672767 1.0
A      1  0.0546509024117  0.7014067052738  0.5822740614853 1.0
A      1  0.9424339968719  0.7005062798574  0.7484393763856 1.0
A      1  0.0540101307048  0.7002758887601  0.9157770000203 1.0
A      1  0.7772034594837  0.3999698836948  0.0806617532541 1.0
A      1  0.8896438266480  0.3999398516099  0.2472463158351 1.0
A      1  0.7802569182896  0.3987200775925  0.4121601266602 1.0
A      1  0.8887742371539  0.3993259141440  0.5820577840823 1.0
A      1  0.7828613523959  0.3996370516252  0.7532928748135 1.0
A      1  0.8894924376552  0.4000299290643  0.9167342279315 1.0
A      1  0.6097250730474  0.5006741322269  0.0818410679182 1.0
A      1  0.7237385771324  0.5007792384146  0.2444940845390 1.0
A      1  0.7280934912411  0.5053041566072  0.5745820262465 1.0
A      1  0.6032536122702  0.5087956768372  0.7502586934374 1.0
A      1  0.7202603709560  0.5001244121556  0.9142653744202 1.0
A      1  0.4430884478079  0.6004175811892  0.0809049554543 1.0
A      1  0.5516816516332  0.6006080827352  0.2515126746506 1.0
A      1  0.4365848790582  0.6017068473040  0.7550636991456 1.0
A      1  0.5530812293941  0.6018212967100  0.9167438710112 1.0
A      1  0.2757692288806  0.7004419048433  0.0820441269065 1.0
A      1  0.3901341899666  0.7071382486989  0.2413167491149 1.0
A      1  0.2731982725905  0.7048625754857  0.4218833446251 1.0
A      1  0.3850183676929  0.7008401176536  0.5882626972004 1.0
A      1  0.2732746889299  0.7012077675001  0.7511653357454 1.0
A      1  0.3859675524014  0.7017066911450  0.9171649807643 1.0
A      1  0.1100112749017  0.8004689484752  0.0823817788112 1.0
A      1  0.2217859983491  0.8004610320602  0.2497869988542 1.0
A      1  0.1095388425388  0.8017094515234  0.4157573706037 1.0
A      1  0.2198082290742  0.8024568114338  0.5846359520216 1.0
A      1  0.1084125243078  0.8007455460091  0.7495584576584 1.0
A      1  0.2199381995451  0.8011282828633  0.9162151258994 1.0
A      1  0.9435172678598  0.9001938207894  0.0812849513562 1.0
A      1  0.0550245750811  0.9003742467196  0.2482896864562 1.0
A      1  0.9444641595915  0.9010544917070  0.4144586270201 1.0
A      1  0.0543851130417  0.9011015688252  0.5821239223703 1.0
A      1  0.9427607190117  0.9002888742406  0.7483913076082 1.0
A      1  0.0537155285952  0.9004081357604  0.9154346918727 1.0
A      1  0.7773315932043  0.6003921716586  0.0793135088838 1.0
A      1  0.8900705888472  0.6003343781729  0.2469186704989 1.0
A      1  0.7803750433711  0.6024127165620  0.4113242870258 1.0
A      1  0.8908582167522  0.6015199162823  0.5810934234403 1.0
A      1  0.7758682375826  0.5993153481397  0.7467677261496 1.0
A      1  0.8875280391793  0.5998874350371  0.9141211541899 1.0
A      1  0.6099237001982  0.7002199603307  0.0818623460769 1.0
A      1  0.7230197070826  0.7001211359330  0.2448917493838 1.0
A      1  0.6177438813480  0.7054027944684  0.4095445927953 1.0
A      1  0.7243449442142  0.7023653666921  0.5804633872015 1.0
A      1  0.6075903897902  0.7004311489552  0.7441721048834 1.0
A      1  0.7201514499349  0.6999223885239  0.9130539256503 1.0
A      1  0.4446026777118  0.8023964763548  0.0791270296744 1.0
A      1  0.5559030016742  0.8020247317638  0.2466408727609 1.0
A      1  0.4432133588945  0.7964381253643  0.4136315077059 1.0
A      1  0.5537894384358  0.7938452230558  0.5783859101474 1.0
A      1  0.4422289773766  0.8010122299280  0.7495660497045 1.0
A      1  0.5545117222902  0.8000882274089  0.9136833321242 1.0
A      1  0.2770246168524  0.9001495203886  0.0824147636983 1.0
A      1  0.3885093267836  0.9022617143964  0.2483750533014 1.0
A      1  0.2774458075041  0.9013385284944  0.4155828262263 1.0
A      1  0.3884734256769  0.8994482460298  0.5812724540619 1.0
A      1  0.2761131383112  0.9005629681010  0.7492156737898 1.0
A      1  0.3869656690662  0.9008789505252  0.9150020585787 1.0
A      1  0.1102392608428  0.0000632823223  0.0818070139163 1.0
A      1  0.2213850729458  0.0002464421852  0.2485697240281 1.0
A      1  0.1109724006053  0.0004141443930  0.4151507873031 1.0
A      1  0.2218770857904  0.0005455524029  0.5820607517242 1.0
A      1  0.1097527432374  0.9999946200843  0.7487358528595 1.0
A      1  0.2204536940906  0.0002498685848  0.9155910699723 1.0
A      1  0.7769701552239  0.8002863920469  0.0799997134665 1.0
A      1  0.8890938166356  0.8002191489335  0.2472470711358 1.0
A      1  0.7799668740042  0.8023112092024  0.4135095133331 1.0
A      1  0.8888993451476  0.8011687323772  0.5813218667676 1.0
A      1  0.7762117893702  0.7999382973834  0.7477511339191 1.0
A      1  0.8873589478546  0.8000317247244  0.9145480761225 1.0
A      1  0.6109120653577  0.9004975389076  0.0805733192017 1.0
A      1  0.7220269382561  0.9000303710955  0.2473467672383 1.0
A      1  0.6101047535162  0.9013985255443  0.4145020893604 1.0
A      1  0.7204946036776  0.8995297043846  0.5806302233651 1.0
A      1  0.6092685664170  0.8988617512518  0.7463173616149 1.0
A      1  0.7208302253727  0.9001395005283  0.9136951460571 1.0
A      1  0.4438741426840  0.0006541866517  0.0815113348212 1.0
A      1  0.5552444252362  0.0007293762071  0.2480568221270 1.0
A      1  0.4439215824067  0.9998384759170  0.4149420832760 1.0
A      1  0.5541067470270  0.9995348520222  0.5811036724858 1.0
A      1  0.4426097884634  0.9997351100732  0.7480110098095 1.0
A      1  0.5540702616546  0.9990613597038  0.9143832577343 1.0
A      1  0.7771605670643  0.9999828933015  0.0806784168519 1.0
A      1  0.8881994671996  0.0000731964876  0.2476718789304 1.0
A      1  0.7770335842490  0.0000214167604  0.4140876016506 1.0
A      1  0.8876672230233  0.9996147556303  0.5811519217163 1.0
A      1  0.7763598277328  0.9997115226448  0.7476136913710 1.0
A      1  0.8873548195803  0.0000957450740  0.9145810909329 1.0
END
