TITL AB-20764-5019-204 0.0000000000 4458.8459578500 -1488.7084386455 0 0  183 (P1) n - 1
REM
REM Run started: at Fri Oct 6 15:26:49 BST 2023 in /home/michal/install/eddp/airss/examples/1.11
REM pp3 from code version ## 0.9.3 July 2022 commit b0220bf5cbf550a3b7
REM
REM
REM
REM Total runtime: s
REM
REM
REM ./AB.cell (a186c3e4acc5915692489c59fabd1559)
REM ## AIRSS Version 0.9.3 July 2022 commit b0220bf5cbf550a3b7
REM compiler GCC version 11.4.0
REM options -cpp -imultiarch x86_64-linux-gnu -mtune=generic -march=x86-64 -g -Og -fpre-include=/usr/include/finclude/math-vector-fortran.h
REM cmdline: airss.pl -pp3 max 100 -seed AB 
REM seed 2116549800 -1615413775 -1504652568 -68662564 -531457959 -1669144162 -1742058839 1563139259
REM
REM AB.pp (46f9ffe235eb1beff4ce53cde2d82919)
REM 
CELL 1.54180   16.99142   16.35000   16.05000   90.00000   90.00000   90.00000
LATT -1
SFAC A  B  
A      1  0.9444001259061  0.0987721712918  0.0828316615826 1.0
A      1  0.0548050822237  0.0976780271758  0.2490678677474 1.0
A      1  0.5539812292199  0.6004933107331  0.5826637891506 1.0
A      1  0.3853057526509  0.5065737015770  0.5798734302529 1.0
A      1  0.5418557924979  0.4011345260006  0.5561372377455 1.0
A      1  0.4042640955328  0.3922106249917  0.4212704333275 1.0
A      1  0.6332934359577  0.5209995973058  0.4215812249867 1.0
B      2  0.6542269229684  0.3998923353120  0.6576521946206 1.0
B      2  0.4248267239079  0.6352693213977  0.4346625500439 1.0
B      2  0.5418307499560  0.4113599741631  0.3881217476091 1.0
B      2  0.4806460647899  0.5305164017687  0.3888974593402 1.0
A      1  0.9438410231742  0.0962245947427  0.4163545525776 1.0
A      1  0.0550505746164  0.0974561978795  0.5846033533935 1.0
A      1  0.9443406471987  0.0989194432688  0.7507464435858 1.0
A      1  0.0554584459722  0.0991555741869  0.9169829778006 1.0
A      1  0.2775478613051  0.0987193967172  0.0833991371134 1.0
A      1  0.3882048643907  0.0987525409075  0.2505956255656 1.0
A      1  0.2766498549281  0.0967969272239  0.4171606493919 1.0
A      1  0.3882619710485  0.0985306586394  0.5837957170234 1.0
A      1  0.2771448551260  0.0990317257554  0.7509901840674 1.0
A      1  0.3879794158081  0.0986797886675  0.9175858916372 1.0
A      1  0.1105346218255  0.1989614020553  0.0828777177611 1.0
A      1  0.2205360737979  0.1967677869330  0.2481123891122 1.0
A      1  0.1037401816848  0.1945400611005  0.4167720309121 1.0
A      1  0.2196004443550  0.1965632912848  0.5856145365940 1.0
A      1  0.1103931087925  0.1991176089220  0.7510040262105 1.0
A      1  0.2221589729864  0.1992648658364  0.9170542147370 1.0
A      1  0.9447664546838  0.2992099533578  0.0830948799238 1.0
A      1  0.0561881372053  0.2987601000771  0.2501593506091 1.0
A      1  0.9435828000632  0.2988782193697  0.4165316867114 1.0
A      1  0.0566663538750  0.2989697989789  0.5833059436863 1.0
A      1  0.9449069731964  0.2991802868387  0.7500503584347 1.0
A      1  0.0559722133410  0.2995681310309  0.9168028504679 1.0
A      1  0.6112786730018  0.0981537875726  0.0837475101373 1.0
A      1  0.7219480859293  0.0989816752593  0.2497318908295 1.0
A      1  0.6108777634951  0.0955040471395  0.4170437126352 1.0
A      1  0.7221933290688  0.0979260370408  0.5830509979328 1.0
A      1  0.6110096343345  0.0971225821028  0.7504949559978 1.0
A      1  0.7220206718969  0.0994301451991  0.9165993250676 1.0
A      1  0.4439388396140  0.1990477575795  0.0833156440250 1.0
A      1  0.5553033399408  0.1984751469624  0.2489628667044 1.0
A      1  0.4439108258332  0.2001488418678  0.4175040305335 1.0
A      1  0.5559357421553  0.2013457604682  0.5849094725594 1.0
A      1  0.4429886271913  0.1975989652329  0.7511829839184 1.0
A      1  0.5541706343797  0.1966194983346  0.9186133333376 1.0
A      1  0.2772089414551  0.2989036339069  0.0829904958717 1.0
A      1  0.3878540576732  0.2976916746557  0.2487792845845 1.0
A      1  0.2601272581102  0.2890888128673  0.4166171215248 1.0
A      1  0.3841323421528  0.2947828589503  0.5872862284368 1.0
A      1  0.2767170608401  0.2997225267843  0.7511253226197 1.0
A      1  0.3892321758060  0.2996108911923  0.9148545642203 1.0
A      1  0.1113923940972  0.3992406812011  0.0838727595074 1.0
A      1  0.2226821177970  0.3988651532167  0.2514893957393 1.0
A      1  0.1070068060410  0.4000251362943  0.4167278430712 1.0
A      1  0.2228102398962  0.3997032093742  0.5817266172082 1.0
A      1  0.1112601805497  0.3995741267304  0.7498274986323 1.0
A      1  0.2224466134363  0.3997230950118  0.9170399866720 1.0
A      1  0.9450150238866  0.4994047188985  0.0831357369441 1.0
A      1  0.0565828606492  0.4997465594818  0.2499549458357 1.0
A      1  0.9449506773932  0.5001284003356  0.4168765208886 1.0
A      1  0.0570595202489  0.5000141311120  0.5837945897545 1.0
A      1  0.9449631275303  0.4999594022581  0.7503665805036 1.0
A      1  0.0560328998918  0.4993790795292  0.9169273699967 1.0
A      1  0.7785397169177  0.1984503686859  0.0827486483968 1.0
A      1  0.8902235571219  0.1987260093575  0.2488440186249 1.0
A      1  0.7827041259217  0.1947512797882  0.4143855679954 1.0
A      1  0.8920458615157  0.1973690332814  0.5833357806319 1.0
A      1  0.7780714618806  0.1990418013765  0.7493187703623 1.0
A      1  0.8892605172994  0.1993337419927  0.9163994148926 1.0
A      1  0.6124999557085  0.2970513632704  0.0790103631957 1.0
A      1  0.7241710027442  0.2987887968764  0.2479508864312 1.0
A      1  0.6208498833277  0.2859823858866  0.4151483835763 1.0
A      1  0.7295533688166  0.2931325301754  0.5780917391840 1.0
A      1  0.6084526703063  0.2918075061263  0.7569888373685 1.0
A      1  0.7234361436103  0.2992160059205  0.9164093200714 1.0
A      1  0.4429088513654  0.3990841324436  0.0801208859406 1.0
A      1  0.5576796340849  0.3972546882450  0.2353408121713 1.0
A      1  0.4474746140956  0.4005991850545  0.7440635060125 1.0
A      1  0.5556224658422  0.3997779342476  0.9158361491218 1.0
A      1  0.2778995332141  0.4991804040587  0.0840006791044 1.0
A      1  0.3891267273919  0.4983489005551  0.2525472341864 1.0
A      1  0.2662192347014  0.5080901098277  0.4163698423329 1.0
A      1  0.2779706963408  0.4992859934504  0.7493545031603 1.0
A      1  0.3892500545059  0.4996147924043  0.9151241426950 1.0
A      1  0.1112281406982  0.5994911397158  0.0830583367769 1.0
A      1  0.2215522345515  0.6006618463304  0.2487685855811 1.0
A      1  0.1071700705088  0.6030309647308  0.4169917948198 1.0
A      1  0.2202058119563  0.6023647417434  0.5853596276402 1.0
A      1  0.1109470430798  0.5998051432178  0.7511971268133 1.0
A      1  0.2225941341951  0.5993088531320  0.9172342656198 1.0
A      1  0.9448974829993  0.6999316269744  0.0831303634584 1.0
A      1  0.0560785503187  0.7004444636672  0.2492386924861 1.0
A      1  0.9481713245775  0.7045268034834  0.4167027793797 1.0
A      1  0.0565800618503  0.7018400476855  0.5848783576111 1.0
A      1  0.9451176867023  0.7006697501508  0.7513418511596 1.0
A      1  0.0558162971868  0.6995838176436  0.9173080996249 1.0
A      1  0.7783572996457  0.3993284931629  0.0827196512378 1.0
A      1  0.8905016452876  0.3994287393238  0.2495655680884 1.0
A      1  0.7798402661657  0.3993652688617  0.4157267915873 1.0
A      1  0.8917331255561  0.3992679286335  0.5836248145529 1.0
A      1  0.7795568928106  0.3995906685082  0.7513753128199 1.0
A      1  0.8898827081334  0.3995048441552  0.9169143437350 1.0
A      1  0.6124287926533  0.5009378528990  0.0804602303683 1.0
A      1  0.7245948108107  0.4996010879928  0.2487690343566 1.0
A      1  0.7335596413510  0.5069565622588  0.5825774942336 1.0
A      1  0.6088414154562  0.5086806599248  0.7563621031876 1.0
A      1  0.7232435596037  0.4998476814768  0.9168094603668 1.0
A      1  0.4443542349194  0.5986981005972  0.0857367946739 1.0
A      1  0.5559993987881  0.5977594694752  0.2533456129193 1.0
A      1  0.4428921228065  0.6016422616914  0.7501936350965 1.0
A      1  0.5541352714254  0.6020908608619  0.9193457767299 1.0
A      1  0.2784029142150  0.6993577308419  0.0846090161832 1.0
A      1  0.3902676848610  0.6966578176824  0.2556351038273 1.0
A      1  0.2772273683574  0.7016657037977  0.4182740748348 1.0
A      1  0.3880664877439  0.7025850095331  0.5846679259258 1.0
A      1  0.2771809229423  0.7001328254238  0.7513817229869 1.0
A      1  0.3883296314677  0.6997359719892  0.9181805657892 1.0
A      1  0.1115524525632  0.7995044958194  0.0836641539325 1.0
A      1  0.2229023947824  0.7992978154652  0.2504706468854 1.0
A      1  0.1124294388116  0.8012052066553  0.4170586282196 1.0
A      1  0.2220026327735  0.8010109458566  0.5847588224058 1.0
A      1  0.1112878691488  0.8000710938532  0.7512848993055 1.0
A      1  0.2220645396306  0.7993724793134  0.9177994462819 1.0
A      1  0.9444461449154  0.8992314642671  0.0835856924465 1.0
A      1  0.0552361367797  0.8989455723294  0.2500610448535 1.0
A      1  0.9448054478096  0.9000980180692  0.4167933423556 1.0
A      1  0.0550447603521  0.8995502170100  0.5840771976025 1.0
A      1  0.9445492189765  0.8996789116943  0.7506908805616 1.0
A      1  0.0551988817537  0.8993011214897  0.9173358057550 1.0
A      1  0.7786671398568  0.6000827647409  0.0834600682077 1.0
A      1  0.8912681618514  0.6000118199879  0.2487371879856 1.0
A      1  0.7898885416130  0.6086923534623  0.4161687327016 1.0
A      1  0.8944337032449  0.6026530027288  0.5845362584355 1.0
A      1  0.7788917330910  0.6014198008511  0.7509963674834 1.0
A      1  0.8894353716709  0.5996811870936  0.9170686892589 1.0
A      1  0.6112020864227  0.6995126392460  0.0853883786853 1.0
A      1  0.7220761856634  0.6992324627171  0.2513608048792 1.0
A      1  0.6088788874595  0.7070197603982  0.4174914826437 1.0
A      1  0.7219385286441  0.7015920263075  0.5830003159944 1.0
A      1  0.6109471742957  0.7026703181812  0.7505048656581 1.0
A      1  0.7217659578478  0.6996727410282  0.9174177037811 1.0
A      1  0.4440645953898  0.7985339441369  0.0851491138046 1.0
A      1  0.5550059918020  0.7997492958211  0.2501648633833 1.0
A      1  0.4435129101290  0.8008533952735  0.4181293043885 1.0
A      1  0.5545930838081  0.8013128273551  0.5850930618650 1.0
A      1  0.4438769850522  0.8004318645574  0.7517481085214 1.0
A      1  0.5551072971176  0.7999812709072  0.9181681229013 1.0
A      1  0.2778012731836  0.8992033912903  0.0839522163265 1.0
A      1  0.3886092062049  0.8986725706663  0.2507337584293 1.0
A      1  0.2779354130326  0.8996983923729  0.4174508464004 1.0
A      1  0.3883320657223  0.9005626053838  0.5845618653958 1.0
A      1  0.2775905524172  0.8996684123744  0.7513781900360 1.0
A      1  0.3884658548904  0.8992348504212  0.9181343412859 1.0
A      1  0.1110750967098  0.9989945333626  0.0834277321274 1.0
A      1  0.2218076244189  0.9982153200986  0.2501346555296 1.0
A      1  0.1110161210016  0.9981974528949  0.4169632111821 1.0
A      1  0.2216076201927  0.9987467751766  0.5843836554122 1.0
A      1  0.1109797818354  0.9992435588103  0.7509562753781 1.0
A      1  0.2217427728514  0.9990767389993  0.9173797048396 1.0
A      1  0.7776705112386  0.7993625057193  0.0839371304645 1.0
A      1  0.8884331442241  0.7994553390435  0.2500848373360 1.0
A      1  0.7780300003350  0.8025651925932  0.4169718861203 1.0
A      1  0.8885830976144  0.8003943700359  0.5838906333345 1.0
A      1  0.7780386853116  0.8002531306746  0.7505746471530 1.0
A      1  0.8885528618879  0.7995459157440  0.9172661795328 1.0
A      1  0.6108863419490  0.8990276107751  0.0838544615889 1.0
A      1  0.7214274164859  0.8992962991707  0.2500499168941 1.0
A      1  0.6103688040330  0.9008756238347  0.4173257911504 1.0
A      1  0.7213100198179  0.8999016566743  0.5841352025766 1.0
A      1  0.6109838207828  0.8999229099792  0.7511168593630 1.0
A      1  0.7219866329193  0.8994430786454  0.9172119053626 1.0
A      1  0.4442197106867  0.9989784022510  0.0841160730154 1.0
A      1  0.5548504117397  0.9990069671167  0.2500386611463 1.0
A      1  0.4437762037190  0.9997819053374  0.4170896380836 1.0
A      1  0.5546501808819  0.0002215137285  0.5843646972954 1.0
A      1  0.4439075117441  0.9991298916558  0.7512537298019 1.0
A      1  0.5550817955348  0.9986797990363  0.9175833766623 1.0
A      1  0.7776645514010  0.9989173901163  0.0833080691411 1.0
A      1  0.8881378259272  0.9987921714145  0.2495837055791 1.0
A      1  0.7776618078648  0.9983760226305  0.4165965162117 1.0
A      1  0.8882936760606  0.9987267481192  0.5838825174993 1.0
A      1  0.7779401556356  0.9993487768346  0.7505262073128 1.0
A      1  0.8886168968696  0.9992762777663  0.9170108145072 1.0
END
