TITL AB-20764-5019-588 0.0000000000 4458.8459578500 -1490.5516020666 0 0  183 (P1) n - 1
REM
REM Run started: at Fri Oct 6 15:41:13 BST 2023 in /home/michal/install/eddp/airss/examples/1.11
REM pp3 from code version ## 0.9.3 July 2022 commit b0220bf5cbf550a3b7
REM
REM
REM
REM Total runtime: s
REM
REM
REM ./AB.cell (a186c3e4acc5915692489c59fabd1559)
REM ## AIRSS Version 0.9.3 July 2022 commit b0220bf5cbf550a3b7
REM compiler GCC version 11.4.0
REM options -cpp -imultiarch x86_64-linux-gnu -mtune=generic -march=x86-64 -g -Og -fpre-include=/usr/include/finclude/math-vector-fortran.h
REM cmdline: airss.pl -pp3 max 100 -seed AB 
REM seed 817332799 1752826271 -1165931911 657011016 2026915010 726772713 2097856108 23043293
REM
REM AB.pp (46f9ffe235eb1beff4ce53cde2d82919)
REM 
CELL 1.54180   16.99142   16.35000   16.05000   90.00000   90.00000   90.00000
LATT -1
SFAC A  B  
A      1  0.9444332750091  0.0974480677830  0.0838613073091 1.0
A      1  0.0549693874508  0.0980180974886  0.2503950989714 1.0
A      1  0.5810755028486  0.5509537221452  0.4937314935096 1.0
A      1  0.4198984459876  0.5931647929237  0.4155148912613 1.0
A      1  0.4659373875946  0.4044831085210  0.4237830035448 1.0
A      1  0.5593537243355  0.3894721777921  0.5923466579398 1.0
A      1  0.3926271489293  0.4984554737224  0.5861577035562 1.0
B      2  0.4981947502221  0.6948590632742  0.3348610678532 1.0
B      2  0.5340879705337  0.6352363376869  0.6224469082141 1.0
B      2  0.6329098200921  0.4555819552654  0.3757222127064 1.0
B      2  0.3407798593654  0.4022972465528  0.3413398776518 1.0
A      1  0.9437924501520  0.0971857484189  0.4174060659224 1.0
A      1  0.0544873816475  0.0970927579214  0.5847265539496 1.0
A      1  0.9442258772065  0.0965949899918  0.7510666681589 1.0
A      1  0.0551307834975  0.0976552834045  0.9176560584006 1.0
A      1  0.2775070521664  0.0982477125733  0.0839463424301 1.0
A      1  0.3880174354928  0.0975457643589  0.2501394342724 1.0
A      1  0.2764278584043  0.0979744044263  0.4175887770684 1.0
A      1  0.3876624839465  0.0996662930336  0.5837799231835 1.0
A      1  0.2774407380745  0.0976165511386  0.7513172885865 1.0
A      1  0.3882189213945  0.0977203177569  0.9167290950753 1.0
A      1  0.1109612426501  0.1977247258446  0.0840864445789 1.0
A      1  0.2216435325814  0.1987189356313  0.2511653350134 1.0
A      1  0.1083441978469  0.1963214130787  0.4178323607950 1.0
A      1  0.2206663701325  0.1966568835753  0.5867553659620 1.0
A      1  0.1104727781248  0.1972948949828  0.7516458437636 1.0
A      1  0.2217446680186  0.1977238920932  0.9173828176865 1.0
A      1  0.9442301706329  0.2970838136087  0.0838345087391 1.0
A      1  0.0545040208718  0.2969108106455  0.2503796644387 1.0
A      1  0.9429180079382  0.2965421103058  0.4176298368179 1.0
A      1  0.0557487568003  0.2968076962217  0.5847264743261 1.0
A      1  0.9443890164794  0.2965615094514  0.7512952993093 1.0
A      1  0.0553489757731  0.2974597293669  0.9175633819254 1.0
A      1  0.6114892309666  0.0976886292448  0.0829706392796 1.0
A      1  0.7221755082395  0.0976291754319  0.2504203207150 1.0
A      1  0.6105245017410  0.0996203823125  0.4171028823373 1.0
A      1  0.7216596766353  0.0959653595450  0.5839463285137 1.0
A      1  0.6110834922696  0.0968845518680  0.7505286385877 1.0
A      1  0.7219846053502  0.0970049725970  0.9170285538419 1.0
A      1  0.4450024403771  0.1964533655136  0.0814792757691 1.0
A      1  0.5562632110647  0.1966626149340  0.2498254746496 1.0
A      1  0.4435323502713  0.2029343357688  0.4159055327964 1.0
A      1  0.5551819769921  0.1953061044246  0.5841013267088 1.0
A      1  0.4444369236058  0.1981062652493  0.7501376550010 1.0
A      1  0.5552661658692  0.1969949745939  0.9167860266253 1.0
A      1  0.2770412332177  0.2981338323982  0.0826460579209 1.0
A      1  0.3905143559274  0.2930101758484  0.2437205397327 1.0
A      1  0.2713373668647  0.2929699946691  0.4232401659514 1.0
A      1  0.3886116031569  0.2993475654406  0.5833531361374 1.0
A      1  0.2775243974490  0.2974904799329  0.7512019455836 1.0
A      1  0.3885524144682  0.2974201238051  0.9167126123308 1.0
A      1  0.1096803660383  0.3978468224624  0.0831264841553 1.0
A      1  0.2180955362640  0.3979891694025  0.2478937906328 1.0
A      1  0.1060551240763  0.3960982844226  0.4173213370746 1.0
A      1  0.2213442524538  0.3976647934423  0.5870869826446 1.0
A      1  0.1101887955140  0.3975767759040  0.7513209579035 1.0
A      1  0.2217055289103  0.3978360728709  0.9168826826711 1.0
A      1  0.9435109915837  0.4975149726213  0.0843407481402 1.0
A      1  0.0537651957118  0.4980138477773  0.2510596114699 1.0
A      1  0.9410814774413  0.4975502210603  0.4177274716226 1.0
A      1  0.0556024862250  0.4980545120770  0.5839285931745 1.0
A      1  0.9438345419031  0.4971763365411  0.7505310949227 1.0
A      1  0.0549520194428  0.4977758335868  0.9173828638916 1.0
A      1  0.7780106153318  0.1969027422109  0.0839085359245 1.0
A      1  0.8887045623024  0.1970428456936  0.2504234028935 1.0
A      1  0.7788645691233  0.1964567891218  0.4174038038487 1.0
A      1  0.8893529229335  0.1959817218072  0.5845696878097 1.0
A      1  0.7784073565368  0.1956835101436  0.7513404664107 1.0
A      1  0.8889214337153  0.1971830586489  0.9175790658713 1.0
A      1  0.6113969525595  0.2965637490433  0.0822787299452 1.0
A      1  0.7228338656173  0.2967466917442  0.2501568941082 1.0
A      1  0.6158721319180  0.2950844409802  0.4183245741204 1.0
A      1  0.7246281407454  0.2942041252312  0.5856407961739 1.0
A      1  0.6127231993564  0.2954507711939  0.7536840805592 1.0
A      1  0.7228272258045  0.2965605470614  0.9180417800002 1.0
A      1  0.4445237901042  0.3977284017844  0.0806520539128 1.0
A      1  0.5549444814122  0.3929267999683  0.2467689975312 1.0
A      1  0.4440574657891  0.3974500489559  0.7520550433703 1.0
A      1  0.5559944437780  0.3977484472571  0.9155645923356 1.0
A      1  0.2766976481460  0.4985348964757  0.0824041553523 1.0
A      1  0.3930836658975  0.5054385767702  0.2399274522480 1.0
A      1  0.2611356811009  0.5015584936395  0.4251678671782 1.0
A      1  0.2772942852497  0.4980381443939  0.7508676742925 1.0
A      1  0.3882895111001  0.4981631429888  0.9170419364532 1.0
A      1  0.1096498002348  0.5976335269259  0.0840965232311 1.0
A      1  0.2199190379900  0.5971971723909  0.2515022450818 1.0
A      1  0.1038942917830  0.6005801554263  0.4176476126009 1.0
A      1  0.2209156556665  0.6006789213440  0.5871711743733 1.0
A      1  0.1098933290020  0.5977354442140  0.7511287215733 1.0
A      1  0.2211456262054  0.5978746929917  0.9162836829267 1.0
A      1  0.9433819921616  0.6976509250109  0.0837686925678 1.0
A      1  0.0540814893791  0.6986037519267  0.2502033545852 1.0
A      1  0.9408831292329  0.6977906885247  0.4172766791666 1.0
A      1  0.0541334797207  0.6988140122929  0.5845753328551 1.0
A      1  0.9438356393135  0.6973651598953  0.7510281813860 1.0
A      1  0.0548975903528  0.6978534143728  0.9174587718477 1.0
A      1  0.7782220871993  0.3964874136958  0.0827984963384 1.0
A      1  0.8897260773751  0.3962944846240  0.2507797852208 1.0
A      1  0.7773397668663  0.3968101135602  0.4184264037070 1.0
A      1  0.8913767551805  0.3955469264093  0.5847471844254 1.0
A      1  0.7781186814887  0.3956832795825  0.7527744692100 1.0
A      1  0.8892966825627  0.3973572960446  0.9175522006519 1.0
A      1  0.6117690110842  0.4961617799671  0.0814542497775 1.0
A      1  0.7269653443780  0.4947094955847  0.2480924535999 1.0
A      1  0.7289654595268  0.4923979889609  0.5885454013962 1.0
A      1  0.6100406064384  0.5007809467811  0.7470190910988 1.0
A      1  0.7221322643975  0.4971494028605  0.9162133865858 1.0
A      1  0.4460622214779  0.6008809913956  0.0802444374342 1.0
A      1  0.5651708049516  0.5869599857010  0.2509895982474 1.0
A      1  0.4429065581338  0.5983438957113  0.7522158402832 1.0
A      1  0.5558815373945  0.5976534579547  0.9162355361113 1.0
A      1  0.2745661098445  0.6979746464420  0.0807750350706 1.0
A      1  0.3790313058169  0.7022033946389  0.2430193538771 1.0
A      1  0.2699977278609  0.7030299471276  0.4168498264695 1.0
A      1  0.3881853369979  0.6980869040533  0.5836083767729 1.0
A      1  0.2769780618251  0.6989158953978  0.7510875677310 1.0
A      1  0.3878491204803  0.6987536743674  0.9164771418271 1.0
A      1  0.1093938138875  0.7982110076182  0.0833218387158 1.0
A      1  0.2179651978443  0.8004747540105  0.2496867910353 1.0
A      1  0.1071214360615  0.7996628644039  0.4175102547094 1.0
A      1  0.2208829573217  0.7996269426754  0.5846086661843 1.0
A      1  0.1101699222828  0.7977538751825  0.7508928965732 1.0
A      1  0.2210078018087  0.7986468729271  0.9168714391127 1.0
A      1  0.9437980759300  0.8979423190011  0.0834022193312 1.0
A      1  0.0540430763034  0.8992084908117  0.2501271668699 1.0
A      1  0.9445071400493  0.8991919524577  0.4174661950354 1.0
A      1  0.0542717592459  0.8981947276858  0.5846837383175 1.0
A      1  0.9437634041161  0.8971534810511  0.7508314130252 1.0
A      1  0.0547421075215  0.8979983575546  0.9171613387841 1.0
A      1  0.7774331070637  0.5973857834637  0.0832277199980 1.0
A      1  0.8885263540057  0.5980576406196  0.2510827210882 1.0
A      1  0.7712449988821  0.5948880972328  0.4174161968445 1.0
A      1  0.8886423983299  0.5978024182591  0.5838011580669 1.0
A      1  0.7781033584719  0.5974615800233  0.7519138455465 1.0
A      1  0.8887820647821  0.5973374867813  0.9175290391044 1.0
A      1  0.6112348934218  0.6976213146120  0.0841119760520 1.0
A      1  0.7236328371502  0.6984853569934  0.2493797198770 1.0
A      1  0.6214854402428  0.7158885171668  0.4163773898198 1.0
A      1  0.7182999697256  0.6930832407653  0.5854636170482 1.0
A      1  0.6109754644761  0.6989908388082  0.7522618955056 1.0
A      1  0.7221396244412  0.6976502132521  0.9176637352826 1.0
A      1  0.4437147509605  0.7994600808911  0.0819974127868 1.0
A      1  0.5574347256592  0.8048909239217  0.2440954021964 1.0
A      1  0.4390056916067  0.8065529076184  0.4223264647905 1.0
A      1  0.5540213734089  0.7973834522167  0.5841898295089 1.0
A      1  0.4437385705783  0.7982955598323  0.7504028394128 1.0
A      1  0.5550092846640  0.7978057323254  0.9172315534926 1.0
A      1  0.2770569081603  0.8980215834568  0.0839200968044 1.0
A      1  0.3877192937582  0.8992616940052  0.2510717985334 1.0
A      1  0.2745278520527  0.9006172505720  0.4173214673127 1.0
A      1  0.3866548642209  0.9004284708522  0.5861659500100 1.0
A      1  0.2767289783227  0.8983598316367  0.7513574888062 1.0
A      1  0.3880301423174  0.8983485843818  0.9166725452508 1.0
A      1  0.1106962856266  0.9978680106397  0.0838059196201 1.0
A      1  0.2210516545041  0.9992130923712  0.2502363464544 1.0
A      1  0.1098164563898  0.9984531365375  0.4174439036365 1.0
A      1  0.2207412912955  0.9985974676981  0.5846578337020 1.0
A      1  0.1105383695425  0.9975947287301  0.7512033213168 1.0
A      1  0.2215163847340  0.9981400331034  0.9177330469452 1.0
A      1  0.7773807772249  0.7981679383813  0.0834274093762 1.0
A      1  0.8890911245002  0.7986086750885  0.2497025253791 1.0
A      1  0.7824227238351  0.8018229236172  0.4171971956815 1.0
A      1  0.8874667324604  0.7971121441317  0.5847782406169 1.0
A      1  0.7771387374526  0.7970630322980  0.7501997169371 1.0
A      1  0.8884127591568  0.7975127790372  0.9171068304993 1.0
A      1  0.6118981406351  0.8994297317490  0.0811153882083 1.0
A      1  0.7228060147522  0.8988531159651  0.2503523042976 1.0
A      1  0.6096047833692  0.9050805792416  0.4160632499840 1.0
A      1  0.7206048760046  0.8958113402544  0.5831069889109 1.0
A      1  0.6104120807361  0.8977664646176  0.7503280302402 1.0
A      1  0.7220799022298  0.8974497661238  0.9162486537863 1.0
A      1  0.4440714359429  0.9978482299048  0.0833531102417 1.0
A      1  0.5548598833939  0.0001450290117  0.2491683273165 1.0
A      1  0.4429605478797  0.0025563690682  0.4174725855490 1.0
A      1  0.5541366590938  0.9973575058454  0.5842171082151 1.0
A      1  0.4439239753650  0.9985349833326  0.7507085284150 1.0
A      1  0.5548748270580  0.9977541933231  0.9164855269637 1.0
A      1  0.7779863106064  0.9978159582769  0.0834988779795 1.0
A      1  0.8884577171172  0.9981288641593  0.2504370858259 1.0
A      1  0.7775584099625  0.9988418726240  0.4172722432470 1.0
A      1  0.8877526658739  0.9967206291182  0.5841361915593 1.0
A      1  0.7773216387059  0.9965212133194  0.7501354726045 1.0
A      1  0.8884086023996  0.9975239293448  0.9170660235797 1.0
END
