TITL AB-20764-5019-390 0.0000000000 4458.8459578500 -1499.6987773106 0 0  183 (P1) n - 1
REM
REM Run started: at Fri Oct 6 15:33:59 BST 2023 in /home/michal/install/eddp/airss/examples/1.11
REM pp3 from code version ## 0.9.3 July 2022 commit b0220bf5cbf550a3b7
REM
REM
REM
REM Total runtime: s
REM
REM
REM ./AB.cell (a186c3e4acc5915692489c59fabd1559)
REM ## AIRSS Version 0.9.3 July 2022 commit b0220bf5cbf550a3b7
REM compiler GCC version 11.4.0
REM options -cpp -imultiarch x86_64-linux-gnu -mtune=generic -march=x86-64 -g -Og -fpre-include=/usr/include/finclude/math-vector-fortran.h
REM cmdline: airss.pl -pp3 max 100 -seed AB 
REM seed 2125746182 1386898725 916102727 -1774146827 240962157 1894037662 -1902564498 -584869057
REM
REM AB.pp (46f9ffe235eb1beff4ce53cde2d82919)
REM 
CELL 1.54180   16.99142   16.35000   16.05000   90.00000   90.00000   90.00000
LATT -1
SFAC A  B  
A      1  0.9455640689487  0.0989902769893  0.0819328971796 1.0
A      1  0.0560814450624  0.0989975655168  0.2485108154181 1.0
A      1  0.5584769277550  0.4043374402548  0.5796425088964 1.0
A      1  0.6233349768855  0.4912951234426  0.4105338868615 1.0
A      1  0.4814265875434  0.5994479909121  0.4527736762216 1.0
A      1  0.4448755127048  0.4039106010857  0.4156084865116 1.0
A      1  0.3915041505856  0.4955951750042  0.5925643537658 1.0
B      2  0.3599474699608  0.5990430982499  0.3576959506059 1.0
B      2  0.5250926821914  0.6253404943360  0.6194261979767 1.0
B      2  0.3372482796365  0.5986269563176  0.4884454518658 1.0
B      2  0.6153857606226  0.5954118586702  0.5384213623074 1.0
A      1  0.9452641327696  0.0988343301240  0.4154427963080 1.0
A      1  0.0562496120458  0.0990827856467  0.5825436190484 1.0
A      1  0.9453678569489  0.0989433527958  0.7489265401370 1.0
A      1  0.0563671483152  0.0990494913737  0.9155204676248 1.0
A      1  0.2793409208875  0.0990435369680  0.0819093003867 1.0
A      1  0.3902805137054  0.0990677707446  0.2490313578135 1.0
A      1  0.2795328095092  0.0990518787928  0.4156255338802 1.0
A      1  0.3905217038172  0.0994600489024  0.5819590756067 1.0
A      1  0.2792169543355  0.0990960622806  0.7491046401582 1.0
A      1  0.3902345578807  0.0991237386053  0.9155225815988 1.0
A      1  0.1123993556945  0.1988040734963  0.0818484291403 1.0
A      1  0.2230487858245  0.1979941067096  0.2483199069574 1.0
A      1  0.1121700841397  0.1976295265025  0.4155464061566 1.0
A      1  0.2235190216952  0.1986903915363  0.5828665397245 1.0
A      1  0.1123552563949  0.1987567599151  0.7492656150611 1.0
A      1  0.2232261252236  0.1987667309900  0.9154743823299 1.0
A      1  0.9454466162853  0.2986281199379  0.0817063369259 1.0
A      1  0.0562115721562  0.2977867352935  0.2481268432023 1.0
A      1  0.9455944065890  0.2965863132057  0.4153851598284 1.0
A      1  0.0567932485614  0.2976583727677  0.5830616406632 1.0
A      1  0.9453347389473  0.2984801718620  0.7491942119932 1.0
A      1  0.0563647177573  0.2986652763516  0.9155404686973 1.0
A      1  0.6125352445147  0.0990563626798  0.0815309310656 1.0
A      1  0.7232383596745  0.0989401804665  0.2484722975931 1.0
A      1  0.6119859256974  0.0989032386122  0.4155787991603 1.0
A      1  0.7228358805681  0.0987968235745  0.5820964536474 1.0
A      1  0.6121491869185  0.0992288199866  0.7486066914789 1.0
A      1  0.7232670738314  0.0990346653007  0.9151789204890 1.0
A      1  0.4461230631579  0.1986250581902  0.0821334716450 1.0
A      1  0.5571627384061  0.1986218472354  0.2482760334897 1.0
A      1  0.4462835443590  0.1996508007309  0.4154523741817 1.0
A      1  0.5569876923453  0.1999531724732  0.5823167568221 1.0
A      1  0.4457722551739  0.1988356221184  0.7487874151868 1.0
A      1  0.5568704283798  0.1994244438739  0.9149123182182 1.0
A      1  0.2794145735322  0.2983477503265  0.0817245929654 1.0
A      1  0.3902092076086  0.2977563925344  0.2491876721461 1.0
A      1  0.2789312452285  0.2944772664379  0.4156121760347 1.0
A      1  0.3910925049341  0.2991482319442  0.5820362611032 1.0
A      1  0.2791714370999  0.2988906947634  0.7492587819624 1.0
A      1  0.3899862788877  0.2983103353570  0.9158344217909 1.0
A      1  0.1116787360388  0.3985677848471  0.0817798542726 1.0
A      1  0.2222071665906  0.3959339790406  0.2460200525069 1.0
A      1  0.1079392469273  0.3949696946545  0.4157895061282 1.0
A      1  0.2229630039224  0.3979427370589  0.5837836493816 1.0
A      1  0.1115728963045  0.3985988448480  0.7495704335875 1.0
A      1  0.2229131017545  0.3982792005414  0.9163072146535 1.0
A      1  0.9459235475889  0.4989163353468  0.0822714143012 1.0
A      1  0.0584662978177  0.4988045907989  0.2495265277642 1.0
A      1  0.9465302329222  0.4986980947574  0.4155206807149 1.0
A      1  0.0566865194757  0.4980860621787  0.5826922637169 1.0
A      1  0.9451286104681  0.4985797235959  0.7491257740470 1.0
A      1  0.0565160518170  0.4988392725333  0.9162430846432 1.0
A      1  0.7789641190132  0.1988832073121  0.0818549036589 1.0
A      1  0.8896181932477  0.1987225568464  0.2484468291415 1.0
A      1  0.7787026264782  0.1979687215841  0.4152363774267 1.0
A      1  0.8896176813172  0.1984476743385  0.5822792043591 1.0
A      1  0.7785941642005  0.1989509490549  0.7485322679446 1.0
A      1  0.8897491207526  0.1988843698370  0.9153477643156 1.0
A      1  0.6128893717921  0.2988523625991  0.0815295095693 1.0
A      1  0.7239298245887  0.2992117261925  0.2485607671883 1.0
A      1  0.6123178421039  0.2972481869263  0.4152307755864 1.0
A      1  0.7236378631526  0.2987720954481  0.5814985636192 1.0
A      1  0.6123805448756  0.3003087675732  0.7476913943784 1.0
A      1  0.7234433937369  0.2988238347876  0.9149908628994 1.0
A      1  0.4464680677994  0.3975401925497  0.0807867862482 1.0
A      1  0.5574831755913  0.3977970477844  0.2478854034853 1.0
A      1  0.4463363806678  0.3975988911314  0.7519936990061 1.0
A      1  0.5576117033089  0.3997378333427  0.9150865624287 1.0
A      1  0.2783616804458  0.4987862812743  0.0822891616497 1.0
A      1  0.3911541002794  0.4942537241263  0.2441023617719 1.0
A      1  0.2690520674283  0.4852260644862  0.4125757878162 1.0
A      1  0.2770115351354  0.4986498193802  0.7519791267977 1.0
A      1  0.3894481519039  0.4984399222885  0.9177068393952 1.0
A      1  0.1124293379160  0.5990169103243  0.0834982548579 1.0
A      1  0.2263276719185  0.5990884651031  0.2507892719217 1.0
A      1  0.1126914020201  0.5990193120312  0.4167865393291 1.0
A      1  0.2192059092725  0.5992590226367  0.5872298239175 1.0
A      1  0.1102201049522  0.5990359317752  0.7508574365035 1.0
A      1  0.2227234782876  0.5990626982336  0.9170857842627 1.0
A      1  0.9458894458345  0.6990960848589  0.0823304248688 1.0
A      1  0.0584081785454  0.6991818440666  0.2495310868182 1.0
A      1  0.9464387149351  0.6990895536920  0.4155184379186 1.0
A      1  0.0563335503827  0.7000157517831  0.5827556452495 1.0
A      1  0.9450670850754  0.6993696789058  0.7492803619961 1.0
A      1  0.0564929123195  0.6992162250406  0.9163482630798 1.0
A      1  0.7792053756253  0.3988127388534  0.0811547022613 1.0
A      1  0.8915811494273  0.3987171701328  0.2481659507477 1.0
A      1  0.7835341079757  0.3960984498527  0.4147852552901 1.0
A      1  0.8920017931782  0.3976076759436  0.5824198510667 1.0
A      1  0.7787462193323  0.3988100398274  0.7490757573773 1.0
A      1  0.8899669830954  0.3990213254526  0.9154461123322 1.0
A      1  0.6122461918903  0.4995001212306  0.0831086540119 1.0
A      1  0.7261521629657  0.4992606340266  0.2461104626335 1.0
A      1  0.7288462523844  0.4968144770869  0.5824885223838 1.0
A      1  0.6106013457433  0.5021611049994  0.7443722425106 1.0
A      1  0.7228557529084  0.4990986779932  0.9144669539425 1.0
A      1  0.4460457054046  0.5991109714432  0.0827952899699 1.0
A      1  0.5550242611749  0.5990270283529  0.2547815087728 1.0
A      1  0.4422684494787  0.5993540089834  0.7550721439583 1.0
A      1  0.5568638374877  0.5991600901281  0.9160721907829 1.0
A      1  0.2783439666327  0.6993404596466  0.0823764798045 1.0
A      1  0.3911488647435  0.7038921887478  0.2442716478903 1.0
A      1  0.2690984135065  0.7127623931960  0.4131521166912 1.0
A      1  0.3875121671097  0.7052621766349  0.5911923484332 1.0
A      1  0.2765844688109  0.6997014320608  0.7522712204901 1.0
A      1  0.3893867726352  0.6998963145061  0.9177947923979 1.0
A      1  0.1116633194892  0.7994811311602  0.0819259639556 1.0
A      1  0.2222248299537  0.8020643382837  0.2462977261224 1.0
A      1  0.1077807416413  0.8029484445148  0.4157601574741 1.0
A      1  0.2214382702995  0.8012891498251  0.5837886632773 1.0
A      1  0.1112368558503  0.7995380345638  0.7497753392368 1.0
A      1  0.2227917968281  0.7999527213547  0.9164710277503 1.0
A      1  0.9454125585715  0.8993737885865  0.0818303670251 1.0
A      1  0.0561457229084  0.9002045874643  0.2482004027645 1.0
A      1  0.9453420956401  0.9010981785419  0.4154774282633 1.0
A      1  0.0559873382198  0.9005330363510  0.5830758532665 1.0
A      1  0.9451284254387  0.8994549714857  0.7492588188322 1.0
A      1  0.0562730753763  0.8994608267357  0.9156607000286 1.0
A      1  0.7796364443068  0.5990112138867  0.0806016104575 1.0
A      1  0.8921241584898  0.5989523520540  0.2484755165908 1.0
A      1  0.7818947850210  0.5987290966286  0.4153276646403 1.0
A      1  0.8919769662791  0.5990029334694  0.5824879545522 1.0
A      1  0.7792159506730  0.5990382671166  0.7490538492115 1.0
A      1  0.8901929370471  0.5989838910047  0.9153873221753 1.0
A      1  0.6122271331409  0.6986501766147  0.0833449569350 1.0
A      1  0.7259828550193  0.6985553843106  0.2465580934475 1.0
A      1  0.6235254868487  0.7060442728264  0.4118747350179 1.0
A      1  0.7266594842428  0.6994631722419  0.5829778696512 1.0
A      1  0.6114290058281  0.6982390527075  0.7470878632566 1.0
A      1  0.7230900635365  0.6991161954763  0.9150807805802 1.0
A      1  0.4464198396138  0.8006498177750  0.0810866533327 1.0
A      1  0.5575956824239  0.7999841759707  0.2484398655688 1.0
A      1  0.4448253280259  0.7946392633273  0.4156747173583 1.0
A      1  0.5571143836649  0.7933182953470  0.5805269551354 1.0
A      1  0.4461097104182  0.8004128169660  0.7516368499500 1.0
A      1  0.5573358607840  0.7988192318335  0.9156551935970 1.0
A      1  0.2793848411005  0.8997460540210  0.0818445160654 1.0
A      1  0.3902019814174  0.9003847787666  0.2492902089197 1.0
A      1  0.2788151731775  0.9036127232651  0.4156956269062 1.0
A      1  0.3905489740470  0.9002881948840  0.5820635126591 1.0
A      1  0.2790179686272  0.8993050878330  0.7492634027349 1.0
A      1  0.3899101599823  0.8998915653182  0.9158108470018 1.0
A      1  0.1123886204283  0.9992382084973  0.0818959933014 1.0
A      1  0.2230210427928  0.0000602522410  0.2483763642430 1.0
A      1  0.1120555210463  0.0002411007521  0.4155816729492 1.0
A      1  0.2231888798441  0.0000249734850  0.5828674097641 1.0
A      1  0.1122503346675  0.9992511229143  0.7492757782648 1.0
A      1  0.2231911316934  0.9994137129695  0.9154977674061 1.0
A      1  0.7791840654116  0.7992450951197  0.0815186243830 1.0
A      1  0.8914748537251  0.7991746359467  0.2483325302529 1.0
A      1  0.7833381481754  0.8014079195423  0.4151434804529 1.0
A      1  0.8910380472198  0.7997863307768  0.5825661838535 1.0
A      1  0.7787699425415  0.7992460698266  0.7491154382869 1.0
A      1  0.8899510724181  0.7990402662600  0.9155990877243 1.0
A      1  0.6128754651278  0.8992659174516  0.0818671735486 1.0
A      1  0.7238926232229  0.8986634971496  0.2488673309839 1.0
A      1  0.6120703272056  0.9003585535153  0.4156347120268 1.0
A      1  0.7230424624872  0.8984290455312  0.5817221586469 1.0
A      1  0.6121531710082  0.8984345781389  0.7479870105183 1.0
A      1  0.7233626205466  0.8992192684459  0.9151444852164 1.0
A      1  0.4460999657082  0.9995110731361  0.0821886110824 1.0
A      1  0.5571609044094  0.9992647337841  0.2484256803035 1.0
A      1  0.4462237227507  0.9987024714844  0.4154641128885 1.0
A      1  0.5568332075915  0.9981633583098  0.5824014659591 1.0
A      1  0.4456805681266  0.9994823111628  0.7488819627720 1.0
A      1  0.5568268477820  0.9989406178361  0.9150770293261 1.0
A      1  0.7789355860268  0.9991206258549  0.0819481574752 1.0
A      1  0.8895687766232  0.9991984348577  0.2485293419224 1.0
A      1  0.7785212404177  0.9996063585531  0.4153827597475 1.0
A      1  0.8892681136054  0.9992580161765  0.5823288746290 1.0
A      1  0.7784763328993  0.9990363637272  0.7485829640659 1.0
A      1  0.8896884064502  0.9991569952457  0.9154049755559 1.0
END
