TITL AB-20764-5019-525 0.0000000000 4458.8459578500 -1495.9121849935 0 0  183 (P1) n - 1
REM
REM Run started: at Fri Oct 6 15:38:54 BST 2023 in /home/michal/install/eddp/airss/examples/1.11
REM pp3 from code version ## 0.9.3 July 2022 commit b0220bf5cbf550a3b7
REM
REM
REM
REM Total runtime: s
REM
REM
REM ./AB.cell (a186c3e4acc5915692489c59fabd1559)
REM ## AIRSS Version 0.9.3 July 2022 commit b0220bf5cbf550a3b7
REM compiler GCC version 11.4.0
REM options -cpp -imultiarch x86_64-linux-gnu -mtune=generic -march=x86-64 -g -Og -fpre-include=/usr/include/finclude/math-vector-fortran.h
REM cmdline: airss.pl -pp3 max 100 -seed AB 
REM seed -1058663699 850615180 -965011066 1980783323 2084838301 154246341 -1842007696 1580947894
REM
REM AB.pp (46f9ffe235eb1beff4ce53cde2d82919)
REM 
CELL 1.54180   16.99142   16.35000   16.05000   90.00000   90.00000   90.00000
LATT -1
SFAC A  B  
A      1  0.9440830099438  0.0984145621355  0.0831282690663 1.0
A      1  0.0547906696177  0.0988973223722  0.2496891283076 1.0
A      1  0.5549246008849  0.3902957359337  0.5865003208032 1.0
A      1  0.3919175714776  0.5009643726822  0.5857174346634 1.0
A      1  0.5729493183743  0.5772424820033  0.5566561605284 1.0
A      1  0.4480840540539  0.4027207062953  0.4173490582510 1.0
A      1  0.4485219029271  0.6021073502300  0.4183821594654 1.0
B      2  0.3283508272838  0.5985665493219  0.3295135012602 1.0
B      2  0.5738814841069  0.5109481628283  0.3765908700933 1.0
B      2  0.5084611026157  0.6794634886642  0.6523375875078 1.0
B      2  0.6425095114269  0.4540044777098  0.4638095097391 1.0
A      1  0.9440762882584  0.0980192208197  0.4164765856397 1.0
A      1  0.0550798411873  0.0981235156880  0.5833575469785 1.0
A      1  0.9443817806098  0.0977346357483  0.7500944573933 1.0
A      1  0.0549769603375  0.0980255447996  0.9166204953942 1.0
A      1  0.2771490888288  0.0984970180241  0.0830207412128 1.0
A      1  0.3880147697339  0.0995670922925  0.2496478503693 1.0
A      1  0.2774810505510  0.0989305142837  0.4160458352044 1.0
A      1  0.3882591584359  0.0985046167482  0.5825806634166 1.0
A      1  0.2776744388878  0.0976190256799  0.7498107434280 1.0
A      1  0.3883284733165  0.0978652729272  0.9157003306098 1.0
A      1  0.1105190446241  0.1984550703919  0.0833660696664 1.0
A      1  0.2213761653215  0.1992604309801  0.2497234138065 1.0
A      1  0.1109658371640  0.1978894753665  0.4165545451977 1.0
A      1  0.2219088072629  0.1975763068232  0.5834736927581 1.0
A      1  0.1109552549161  0.1974355112176  0.7503916462035 1.0
A      1  0.2214806702573  0.1976291980691  0.9170694345695 1.0
A      1  0.9435526699956  0.2983410877144  0.0838032290052 1.0
A      1  0.0549308570696  0.2984306952809  0.2499147993042 1.0
A      1  0.9448047971332  0.2970591664092  0.4164701525790 1.0
A      1  0.0560571567652  0.2967321613805  0.5837778070202 1.0
A      1  0.9444446947620  0.2969546340309  0.7509558659737 1.0
A      1  0.0547412767249  0.2975669981189  0.9173224902800 1.0
A      1  0.6108648186057  0.0988629645974  0.0823636080204 1.0
A      1  0.7217689472169  0.0984994398987  0.2493640622395 1.0
A      1  0.6110663589054  0.0994459904821  0.4156837772276 1.0
A      1  0.7222173500644  0.0979469744545  0.5830039893416 1.0
A      1  0.6111047352855  0.0975962698506  0.7497118823027 1.0
A      1  0.7216960113953  0.0980808554023  0.9163997877126 1.0
A      1  0.4438641671986  0.1977894797728  0.0829765332869 1.0
A      1  0.5552545411104  0.1986779529136  0.2494632719318 1.0
A      1  0.4448780172984  0.1998162493116  0.4168108703782 1.0
A      1  0.5555153955223  0.1962108612116  0.5832261662880 1.0
A      1  0.4444438614639  0.1973245407643  0.7492199103754 1.0
A      1  0.5548400856430  0.1980710193310  0.9164575791203 1.0
A      1  0.2772064318410  0.2987923767436  0.0839454314631 1.0
A      1  0.3887819052479  0.2973034667305  0.2504498514309 1.0
A      1  0.2779795073748  0.2970055224606  0.4168038968867 1.0
A      1  0.3876909565778  0.2986012990701  0.5829179686626 1.0
A      1  0.2771748051238  0.2967146886304  0.7508426161057 1.0
A      1  0.3879692442669  0.2966832988411  0.9164466013435 1.0
A      1  0.1099587359403  0.3986380438213  0.0838758204202 1.0
A      1  0.2217480326321  0.4002664880635  0.2514089267418 1.0
A      1  0.1092719432049  0.3972326488222  0.4171254806011 1.0
A      1  0.2213102411340  0.3961642261812  0.5864581883428 1.0
A      1  0.1097117543886  0.3971712015618  0.7505386156316 1.0
A      1  0.2207302490744  0.3970963593755  0.9169959738786 1.0
A      1  0.9421864929338  0.4979921055216  0.0836360121860 1.0
A      1  0.0510139222786  0.4972898792131  0.2498109464128 1.0
A      1  0.9428136902541  0.4981977955501  0.4175073731652 1.0
A      1  0.0556883867392  0.4976998625355  0.5832031272795 1.0
A      1  0.9438614206316  0.4973793152142  0.7500354099111 1.0
A      1  0.0544451689736  0.4972362144342  0.9157821292913 1.0
A      1  0.7775277632425  0.1983327912883  0.0834263457468 1.0
A      1  0.8884571262745  0.1982443295779  0.2499492844569 1.0
A      1  0.7778559819109  0.1975369080375  0.4165669443374 1.0
A      1  0.8889802106857  0.1972890502788  0.5834760668620 1.0
A      1  0.7778875884159  0.1971903853740  0.7503182023509 1.0
A      1  0.8883383801668  0.1978577062915  0.9169804376740 1.0
A      1  0.6107711911376  0.2980620481093  0.0830487204472 1.0
A      1  0.7219923914370  0.2975914113703  0.2500244831388 1.0
A      1  0.6116768618614  0.2989492036414  0.4164065094313 1.0
A      1  0.7230683344878  0.2968169615123  0.5838141947066 1.0
A      1  0.6118044952470  0.2970264678880  0.7513602960886 1.0
A      1  0.7218224123320  0.2976154484567  0.9179402039362 1.0
A      1  0.4451239620001  0.3958741978540  0.0807202752701 1.0
A      1  0.5566312958239  0.3976486179588  0.2503983176593 1.0
A      1  0.4434439474913  0.3957790249672  0.7509445538704 1.0
A      1  0.5554624358620  0.3984871003582  0.9153234887718 1.0
A      1  0.2759082742721  0.4983542673950  0.0824600857625 1.0
A      1  0.3929759715043  0.4916411525456  0.2423852419228 1.0
A      1  0.2747082022045  0.4914353441924  0.4249443141071 1.0
A      1  0.2753552099282  0.4964033278981  0.7504023667110 1.0
A      1  0.3867079564106  0.4956384081885  0.9188527097654 1.0
A      1  0.1062186694517  0.5983506090097  0.0787527120442 1.0
A      1  0.2094403537972  0.5995664193571  0.2403168702020 1.0
A      1  0.1097645024085  0.5979267591743  0.4150797271781 1.0
A      1  0.2200016749794  0.5976134449081  0.5839928127566 1.0
A      1  0.1098047962294  0.5979720066340  0.7497534182934 1.0
A      1  0.2212322852331  0.5978996452672  0.9154507564011 1.0
A      1  0.9416218054822  0.6984209686770  0.0833248397203 1.0
A      1  0.0503502923644  0.6996957025109  0.2493774107924 1.0
A      1  0.9411401125164  0.6973210452805  0.4165455514427 1.0
A      1  0.0549336026704  0.6985223765866  0.5823767434675 1.0
A      1  0.9443799575907  0.6983008539863  0.7499233831328 1.0
A      1  0.0545049148170  0.6987349347580  0.9155862159097 1.0
A      1  0.7760594540673  0.3987244137862  0.0845902551870 1.0
A      1  0.8868168586320  0.3979225078036  0.2501672895488 1.0
A      1  0.7801532554590  0.3957918092343  0.4171602452643 1.0
A      1  0.8924676644928  0.3954184348916  0.5841924771680 1.0
A      1  0.7782594495950  0.3959535332145  0.7532296636730 1.0
A      1  0.8882723611093  0.3977785507970  0.9178195272646 1.0
A      1  0.6096723913790  0.4983616069961  0.0833768561146 1.0
A      1  0.7173004903970  0.4984632322204  0.2547998148006 1.0
A      1  0.7330893023556  0.4936597435613  0.5900564712398 1.0
A      1  0.6099783222211  0.4998216839661  0.7465452079999 1.0
A      1  0.7213700747702  0.4982082156095  0.9167184876572 1.0
A      1  0.4426394013357  0.5989482732683  0.0804803285931 1.0
A      1  0.5524345503311  0.6025444448243  0.2449092373538 1.0
A      1  0.4391796761455  0.5920727290657  0.7578501299758 1.0
A      1  0.5552891545678  0.5980493889633  0.9169340059304 1.0
A      1  0.2757391628420  0.6988378220243  0.0807416053286 1.0
A      1  0.3902918047032  0.7073325973120  0.2413828616634 1.0
A      1  0.2690077447222  0.7065795540208  0.4198291948668 1.0
A      1  0.3798597934892  0.7009829925782  0.5776064437339 1.0
A      1  0.2767202667528  0.6980713461724  0.7490490477873 1.0
A      1  0.3876800981173  0.6989998001185  0.9159485591857 1.0
A      1  0.1094469475974  0.7980907768524  0.0828572739837 1.0
A      1  0.2200776137314  0.7991947434821  0.2491828784020 1.0
A      1  0.1060740207265  0.8000984925202  0.4158098856429 1.0
A      1  0.2180994972977  0.8016044413721  0.5845064241021 1.0
A      1  0.1100074087630  0.7983481481537  0.7499292341777 1.0
A      1  0.2211082894455  0.7985395818222  0.9155601201683 1.0
A      1  0.9435994360189  0.8985202616259  0.0830668892976 1.0
A      1  0.0540118711692  0.8993786486249  0.2492513270185 1.0
A      1  0.9422156045339  0.8986152274588  0.4162090400943 1.0
A      1  0.0536449183733  0.8992866691290  0.5831157932057 1.0
A      1  0.9443735140525  0.8985475059001  0.7499144882713 1.0
A      1  0.0549718311367  0.8985735669085  0.9165189888049 1.0
A      1  0.7758092675102  0.5975170831287  0.0846505822075 1.0
A      1  0.8850815757470  0.5976592783832  0.2513987146995 1.0
A      1  0.7710795084962  0.5947335231145  0.4199917883185 1.0
A      1  0.8902732127137  0.5988868127663  0.5836983068674 1.0
A      1  0.7796318407095  0.5980098017651  0.7521113797186 1.0
A      1  0.8889857613920  0.5977917784214  0.9174873557440 1.0
A      1  0.6101297741015  0.6997864472960  0.0815267179204 1.0
A      1  0.7213240568172  0.6990148631269  0.2486696697164 1.0
A      1  0.6109190903759  0.7012560654980  0.4108038569710 1.0
A      1  0.7212228987823  0.6980424664101  0.5848415028030 1.0
A      1  0.6179644220180  0.6989610182901  0.7560816479310 1.0
A      1  0.7239843130846  0.6983444598869  0.9191745103841 1.0
A      1  0.4444649677973  0.8010764058898  0.0790242245260 1.0
A      1  0.5555077323676  0.8021471973865  0.2468023593358 1.0
A      1  0.4422313693630  0.8001355192797  0.4128848518375 1.0
A      1  0.5575770612090  0.8040376810295  0.5754582472519 1.0
A      1  0.4448215989133  0.7966564778851  0.7475831858624 1.0
A      1  0.5552495773391  0.7988770243684  0.9152724428817 1.0
A      1  0.2768374012944  0.8984273086564  0.0822857182358 1.0
A      1  0.3874525106756  0.9022177761512  0.2482116454476 1.0
A      1  0.2760948315512  0.9011915082354  0.4158325509537 1.0
A      1  0.3880268689637  0.8988710657994  0.5818122809000 1.0
A      1  0.2776924262690  0.8980635047830  0.7492616449970 1.0
A      1  0.3881431388094  0.8986122040063  0.9143696941905 1.0
A      1  0.1104207672839  0.9983967786842  0.0828729800933 1.0
A      1  0.2207385850378  0.9994542801958  0.2491992591223 1.0
A      1  0.1098525173861  0.9988327660154  0.4163118382119 1.0
A      1  0.2213582793066  0.9992309869769  0.5829957110360 1.0
A      1  0.1109979401616  0.9979355915229  0.7497882147277 1.0
A      1  0.2216154941122  0.9982085039841  0.9162209916485 1.0
A      1  0.7769070849870  0.7992447889883  0.0831715701810 1.0
A      1  0.8869188727105  0.7991963827180  0.2498964438086 1.0
A      1  0.7764018974529  0.7977742049873  0.4165659952594 1.0
A      1  0.8883799907165  0.7982959907711  0.5830375255387 1.0
A      1  0.7794082884636  0.7991957917032  0.7500177249891 1.0
A      1  0.8888912143685  0.7986170691115  0.9166281127506 1.0
A      1  0.6111175350206  0.8998913428990  0.0815019867008 1.0
A      1  0.7219410662028  0.8993596619616  0.2488768578706 1.0
A      1  0.6111112773325  0.9011410508321  0.4131083483212 1.0
A      1  0.7229820250820  0.8989431660558  0.5823322611899 1.0
A      1  0.6109976288172  0.8977017088153  0.7478817371807 1.0
A      1  0.7218351268861  0.8982395457104  0.9156187899908 1.0
A      1  0.4438664538613  0.9992429845202  0.0817088020601 1.0
A      1  0.5547580381585  0.0002784428739  0.2481895090427 1.0
A      1  0.4442154871553  0.9996769118513  0.4157353742756 1.0
A      1  0.5554194733305  0.9994688130998  0.5819719490397 1.0
A      1  0.4444395125489  0.9975858436980  0.7484627836995 1.0
A      1  0.5550600334994  0.9982647845037  0.9152496414285 1.0
A      1  0.7775213578683  0.9988420800580  0.0825778892981 1.0
A      1  0.8881893426023  0.9989671975309  0.2494414900615 1.0
A      1  0.7773781694093  0.9986065181868  0.4159537835868 1.0
A      1  0.8883974504010  0.9984413770115  0.5831793882150 1.0
A      1  0.7775847483694  0.9981831836269  0.7496782666864 1.0
A      1  0.8883589314176  0.9982630222090  0.9164085527457 1.0
END
