TITL AB-20764-5019-359 0.0000000000 4458.8459578500 -1494.8772783790 0 0  183 (P1) n - 1
REM
REM Run started: at Fri Oct 6 15:32:51 BST 2023 in /home/michal/install/eddp/airss/examples/1.11
REM pp3 from code version ## 0.9.3 July 2022 commit b0220bf5cbf550a3b7
REM
REM
REM
REM Total runtime: s
REM
REM
REM ./AB.cell (a186c3e4acc5915692489c59fabd1559)
REM ## AIRSS Version 0.9.3 July 2022 commit b0220bf5cbf550a3b7
REM compiler GCC version 11.4.0
REM options -cpp -imultiarch x86_64-linux-gnu -mtune=generic -march=x86-64 -g -Og -fpre-include=/usr/include/finclude/math-vector-fortran.h
REM cmdline: airss.pl -pp3 max 100 -seed AB 
REM seed -1853379492 1592289287 -1877998296 -1702348095 -1940315879 1017938862 -383977222 505896581
REM
REM AB.pp (46f9ffe235eb1beff4ce53cde2d82919)
REM 
CELL 1.54180   16.99142   16.35000   16.05000   90.00000   90.00000   90.00000
LATT -1
SFAC A  B  
A      1  0.9434336531346  0.0992143819949  0.0845442089239 1.0
A      1  0.0544702836617  0.0992910718635  0.2512303491844 1.0
A      1  0.3843136878726  0.5012470774963  0.5879106754520 1.0
A      1  0.4428129035058  0.6038022741523  0.4169170226838 1.0
A      1  0.4470485696216  0.4118164280845  0.4250207272951 1.0
A      1  0.5437663848340  0.6028005752108  0.5822706414715 1.0
A      1  0.5571300175879  0.4027569166165  0.5861841479858 1.0
B      2  0.6237246033396  0.5455658082017  0.4555093368740 1.0
B      2  0.4995940027110  0.2995499921514  0.3354711474326 1.0
B      2  0.6303024605325  0.4482278596763  0.3755340165201 1.0
B      2  0.6672028541613  0.5979477314190  0.6667965794866 1.0
A      1  0.9450320014604  0.0991047074762  0.4176498759077 1.0
A      1  0.0556012310552  0.0996393452216  0.5845119927979 1.0
A      1  0.9439275551704  0.0993455832328  0.7514034014386 1.0
A      1  0.0543869907396  0.0993469704155  0.9179476882577 1.0
A      1  0.2767513048135  0.0996672701304  0.0850191407450 1.0
A      1  0.3881543278011  0.0999615010285  0.2523000502479 1.0
A      1  0.2754187332586  0.0983595154500  0.4183052155057 1.0
A      1  0.3866380985012  0.0979437507334  0.5880062304390 1.0
A      1  0.2759855675025  0.0994440518699  0.7520969943892 1.0
A      1  0.3872847939880  0.0990842501425  0.9182345498459 1.0
A      1  0.1093203062793  0.1991064068734  0.0842688954093 1.0
A      1  0.2195480304478  0.1987630020319  0.2511327494677 1.0
A      1  0.1113541409178  0.1999509407566  0.4179610467170 1.0
A      1  0.2224083679558  0.1999737923887  0.5841159216374 1.0
A      1  0.1099945920236  0.1994080380562  0.7510101204195 1.0
A      1  0.2204967182129  0.1990008400797  0.9173907406336 1.0
A      1  0.9433559228784  0.2991930714747  0.0840544393075 1.0
A      1  0.0544282328699  0.2993708215360  0.2508700313293 1.0
A      1  0.9453015437446  0.2988614722321  0.4176107261499 1.0
A      1  0.0558267491411  0.2992257437945  0.5847007123570 1.0
A      1  0.9434959405253  0.2993232678747  0.7514364978618 1.0
A      1  0.0546648959172  0.2995034589133  0.9176919379916 1.0
A      1  0.6115053078951  0.0969218038143  0.0818281834870 1.0
A      1  0.7230758058946  0.0978811191798  0.2507037540545 1.0
A      1  0.6103172559179  0.0990366396158  0.4172078962200 1.0
A      1  0.7214689754058  0.0995832652764  0.5844844848439 1.0
A      1  0.6105962384714  0.0992151414166  0.7515089940124 1.0
A      1  0.7218140434602  0.0992124081320  0.9174002250333 1.0
A      1  0.4433288054525  0.1990880971499  0.0830370100256 1.0
A      1  0.5582400182584  0.1915300606363  0.2441874239172 1.0
A      1  0.4401580123656  0.1915172353799  0.4254614865937 1.0
A      1  0.5545056825248  0.1992251412957  0.5870628518169 1.0
A      1  0.4428812293792  0.1991271388166  0.7519316743145 1.0
A      1  0.5543944198846  0.1983696043592  0.9173635915961 1.0
A      1  0.2740159490739  0.2992340907517  0.0817428247535 1.0
A      1  0.3803383811841  0.2992870651855  0.2437776912216 1.0
A      1  0.2801160074215  0.3008526222200  0.4168650155970 1.0
A      1  0.3891638313814  0.3007792732397  0.5849022797554 1.0
A      1  0.2761988111390  0.2992799913880  0.7508390105936 1.0
A      1  0.3868410881938  0.2987123394256  0.9172913255722 1.0
A      1  0.1094016071845  0.3995822112328  0.0844092640275 1.0
A      1  0.2193564703071  0.4003439947403  0.2509619698547 1.0
A      1  0.1107117267423  0.3995471608949  0.4180172387664 1.0
A      1  0.2212090519027  0.3995504699404  0.5843854103580 1.0
A      1  0.1103613136841  0.3992364181485  0.7510808152570 1.0
A      1  0.2210804982573  0.3997016534050  0.9174709880524 1.0
A      1  0.9436963318114  0.4991243445639  0.0851576923638 1.0
A      1  0.0543162411652  0.4997338510400  0.2515954136063 1.0
A      1  0.9433164051302  0.4996136491106  0.4180794751772 1.0
A      1  0.0547153009824  0.4998120948900  0.5845065311986 1.0
A      1  0.9456968117500  0.4988413879159  0.7515663434189 1.0
A      1  0.0554454604599  0.4994320952663  0.9182730777049 1.0
A      1  0.7768756206637  0.1990180041033  0.0844696483485 1.0
A      1  0.8880958614691  0.1995117511408  0.2508164675006 1.0
A      1  0.7800353017668  0.1973853710132  0.4178794743706 1.0
A      1  0.8898197475487  0.1986408313730  0.5847739135362 1.0
A      1  0.7778292585372  0.1988849721148  0.7522367738592 1.0
A      1  0.8882531917159  0.1993944748546  0.9181529958456 1.0
A      1  0.6107619918326  0.2978805509516  0.0823839170804 1.0
A      1  0.7195384074047  0.2987037754509  0.2516293032201 1.0
A      1  0.6186520781380  0.2958649485493  0.4272910664679 1.0
A      1  0.7249323069938  0.2965985572531  0.5880876425455 1.0
A      1  0.6101804965505  0.2978156515153  0.7519382125532 1.0
A      1  0.7217040540964  0.2995855221911  0.9171569278342 1.0
A      1  0.4416359202876  0.3993285182925  0.0821821103866 1.0
A      1  0.5562775475768  0.4043023840748  0.2392735985542 1.0
A      1  0.4416433303171  0.3986246084102  0.7518492834092 1.0
A      1  0.5533135493215  0.3972730957586  0.9202676530356 1.0
A      1  0.2764292033879  0.4994600470543  0.0848727707264 1.0
A      1  0.3877553199882  0.4987336148918  0.2519573698596 1.0
A      1  0.2763242164455  0.5007813350357  0.4183190059891 1.0
A      1  0.2757248661617  0.4998674681237  0.7523618187602 1.0
A      1  0.3877428972193  0.4998522351496  0.9180267483804 1.0
A      1  0.1101184367145  0.5995184190823  0.0850961459528 1.0
A      1  0.2212761228661  0.5997405001212  0.2515078961232 1.0
A      1  0.1095511782846  0.5996686106812  0.4179673402993 1.0
A      1  0.2197314155920  0.6003287307637  0.5850582420321 1.0
A      1  0.1103420531965  0.5997936580183  0.7518066646805 1.0
A      1  0.2213971060475  0.5997953797426  0.9187407422635 1.0
A      1  0.9443175447495  0.6999744466120  0.0852791576108 1.0
A      1  0.0548734110744  0.6996228884703  0.2517375552296 1.0
A      1  0.9424984086467  0.6991764371000  0.4182542590549 1.0
A      1  0.0539787994734  0.6995782478004  0.5846208346689 1.0
A      1  0.9456967116998  0.7007030612605  0.7516059948245 1.0
A      1  0.0555299156922  0.6999419068139  0.9185376986887 1.0
A      1  0.7767587644144  0.3988458247015  0.0844969133669 1.0
A      1  0.8885894779502  0.3989541798766  0.2501752128034 1.0
A      1  0.7800044587042  0.3970630087404  0.4142580920559 1.0
A      1  0.8907121811137  0.3981372837898  0.5843703362525 1.0
A      1  0.7767812388651  0.4012230942277  0.7504441803790 1.0
A      1  0.8882536954564  0.3997425213795  0.9177092436407 1.0
A      1  0.6115039216617  0.5015042387570  0.0814179782540 1.0
A      1  0.7228940690634  0.4999188507712  0.2496272215380 1.0
A      1  0.7253054690728  0.4909395929437  0.5745282149242 1.0
A      1  0.6057029652760  0.4932154797946  0.7593951908988 1.0
A      1  0.7221670944923  0.4994716243989  0.9187127226288 1.0
A      1  0.4439089492167  0.5991227781598  0.0863548975396 1.0
A      1  0.5566667219005  0.5986110966735  0.2552854481075 1.0
A      1  0.4428328014178  0.6004369521717  0.7527600498744 1.0
A      1  0.5539444490417  0.6003262619391  0.9193397203955 1.0
A      1  0.2768193497227  0.6994749347544  0.0851316616095 1.0
A      1  0.3878546812264  0.6996228024805  0.2513127389814 1.0
A      1  0.2756683114567  0.7002331178645  0.4180903313521 1.0
A      1  0.3840936592669  0.7022789174881  0.5855075772530 1.0
A      1  0.2761127670300  0.6998444981275  0.7523243216816 1.0
A      1  0.3877719394867  0.6998643529332  0.9191724403793 1.0
A      1  0.1105203285340  0.7996240354929  0.0849901304242 1.0
A      1  0.2211963773095  0.7995731405171  0.2515620405862 1.0
A      1  0.1094490851116  0.7994340739704  0.4181690919838 1.0
A      1  0.2197700913340  0.8003498141451  0.5851324938002 1.0
A      1  0.1103862031342  0.8000632496614  0.7516407848434 1.0
A      1  0.2213563500153  0.7998003464694  0.9185627861292 1.0
A      1  0.9440299488399  0.8994672854376  0.0842986963998 1.0
A      1  0.0550568328399  0.8995165040509  0.2511824366744 1.0
A      1  0.9442362297033  0.8997329373746  0.4176385335106 1.0
A      1  0.0546983358560  0.9000931845370  0.5848613527201 1.0
A      1  0.9435336850071  0.8997813773736  0.7514630036659 1.0
A      1  0.0546109266667  0.8994655085314  0.9181207292662 1.0
A      1  0.7778719998364  0.5999423329160  0.0847299642282 1.0
A      1  0.8885480879660  0.5997085666463  0.2513346037797 1.0
A      1  0.7746148100146  0.5985543287686  0.4156167337784 1.0
A      1  0.8864809063920  0.5994334643486  0.5853069875726 1.0
A      1  0.7854709875311  0.6002767877491  0.7589026671652 1.0
A      1  0.8908307494076  0.5997108316454  0.9210038895695 1.0
A      1  0.6101039331445  0.6996325783800  0.0860594768763 1.0
A      1  0.7219635767042  0.7002149543841  0.2506107568099 1.0
A      1  0.6100802939149  0.7029147690039  0.4175689826144 1.0
A      1  0.7249893616972  0.7073652960096  0.5772533554117 1.0
A      1  0.6065657720139  0.7060912648234  0.7577016547623 1.0
A      1  0.7212069025392  0.6997641081213  0.9195850051884 1.0
A      1  0.4430784467606  0.7996573553752  0.0856962348636 1.0
A      1  0.5542759584058  0.7990827156342  0.2516345925500 1.0
A      1  0.4430324601528  0.8004548525570  0.4187300874834 1.0
A      1  0.5542600730987  0.8005431563423  0.5860108910527 1.0
A      1  0.4417421512419  0.8008966855970  0.7524871156290 1.0
A      1  0.5534614449300  0.8011527763935  0.9208406771246 1.0
A      1  0.2767208994143  0.8996736166664  0.0851311545761 1.0
A      1  0.3873974424948  0.8994865180739  0.2516868309103 1.0
A      1  0.2761148251290  0.8992247586688  0.4184824167921 1.0
A      1  0.3871693331193  0.8999550892209  0.5855152663068 1.0
A      1  0.2762363538914  0.9000251646125  0.7518913159530 1.0
A      1  0.3872176891160  0.8999003874058  0.9189928981175 1.0
A      1  0.1101876424521  0.9995488872506  0.0847644178349 1.0
A      1  0.2213171657318  0.9993998054801  0.2513742607126 1.0
A      1  0.1101906038389  0.9992533273226  0.4179000951697 1.0
A      1  0.2207643756475  0.9995852046084  0.5851617817614 1.0
A      1  0.1099117958773  0.9995962470181  0.7516540455555 1.0
A      1  0.2208110487157  0.9994717261241  0.9185430460775 1.0
A      1  0.7774569615275  0.7996215322736  0.0844498365716 1.0
A      1  0.8889092558269  0.7996831951893  0.2506135237009 1.0
A      1  0.7784083066596  0.8016051173483  0.4148862548080 1.0
A      1  0.8895247804525  0.8011027314925  0.5844230857308 1.0
A      1  0.7765959758179  0.7990604966714  0.7504086321981 1.0
A      1  0.8879855792708  0.7992806607081  0.9177144668378 1.0
A      1  0.6106007263862  0.8989247539868  0.0849903770358 1.0
A      1  0.7215618239426  0.8994314994641  0.2505446541980 1.0
A      1  0.6108041638337  0.9001215611928  0.4184174747305 1.0
A      1  0.7215365609490  0.9020496377645  0.5843824830595 1.0
A      1  0.6100915377445  0.9014465612165  0.7515725290942 1.0
A      1  0.7212041319214  0.8993093164565  0.9175965951789 1.0
A      1  0.4436145119953  0.9995671282839  0.0852626601393 1.0
A      1  0.5546468039425  0.9969083759642  0.2513151379933 1.0
A      1  0.4431037781677  0.9973031474465  0.4184998999030 1.0
A      1  0.5539992950317  0.0001561630011  0.5846550395247 1.0
A      1  0.4432813784554  0.9995831145317  0.7524030973727 1.0
A      1  0.5542044445633  0.9992967244052  0.9179005109434 1.0
A      1  0.7776751132142  0.9988254541825  0.0839959887756 1.0
A      1  0.8886727963466  0.9991008870566  0.2510683417832 1.0
A      1  0.7777118930555  0.9996170145931  0.4176224984819 1.0
A      1  0.8885935394815  0.0000747401230  0.5844026060536 1.0
A      1  0.7774219580033  0.9993925137764  0.7511957938567 1.0
A      1  0.8881188117368  0.9993044554121  0.9178016428300 1.0
END
