TITL AB-20764-5019-185 0.0000000000 4458.8459578500 -1496.7580327596 0 0  183 (P1) n - 1
REM
REM Run started: at Fri Oct 6 15:26:05 BST 2023 in /home/michal/install/eddp/airss/examples/1.11
REM pp3 from code version ## 0.9.3 July 2022 commit b0220bf5cbf550a3b7
REM
REM
REM
REM Total runtime: s
REM
REM
REM ./AB.cell (a186c3e4acc5915692489c59fabd1559)
REM ## AIRSS Version 0.9.3 July 2022 commit b0220bf5cbf550a3b7
REM compiler GCC version 11.4.0
REM options -cpp -imultiarch x86_64-linux-gnu -mtune=generic -march=x86-64 -g -Og -fpre-include=/usr/include/finclude/math-vector-fortran.h
REM cmdline: airss.pl -pp3 max 100 -seed AB 
REM seed 1743025572 -857286301 -2122551413 1704127837 -379712184 -631772042 -822875743 480999350
REM
REM AB.pp (46f9ffe235eb1beff4ce53cde2d82919)
REM 
CELL 1.54180   16.99142   16.35000   16.05000   90.00000   90.00000   90.00000
LATT -1
SFAC A  B  
A      1  0.9480304232765  0.0986706525211  0.0836979201424 1.0
A      1  0.0591431320145  0.0987609682175  0.2504726371005 1.0
A      1  0.3864153620638  0.4824751548569  0.5801293057627 1.0
A      1  0.5287736248022  0.5983654259149  0.5509478790330 1.0
A      1  0.4499991989955  0.4007579353668  0.4154810764656 1.0
A      1  0.6186250095198  0.4962896418361  0.4129418835826 1.0
A      1  0.5600571317231  0.4004041225106  0.5845920535183 1.0
B      2  0.3393184614738  0.5983353109946  0.6681513277946 1.0
B      2  0.4785109964438  0.5691049593233  0.3823763895938 1.0
B      2  0.6426321228230  0.5986777228242  0.6522777903850 1.0
B      2  0.3906394548979  0.6021918578982  0.4652333809496 1.0
A      1  0.9480349090462  0.0986675320813  0.4167086428622 1.0
A      1  0.0580326686361  0.0988358345476  0.5836285287548 1.0
A      1  0.9474630614241  0.0986730572590  0.7503975825585 1.0
A      1  0.0583591590588  0.0986852686064  0.9173927243988 1.0
A      1  0.2812107522903  0.0986647487505  0.0845257963397 1.0
A      1  0.3924471504968  0.0984927940799  0.2506359765522 1.0
A      1  0.2817012920342  0.0988990589330  0.4175061294615 1.0
A      1  0.3921798903398  0.0989099709264  0.5839933701729 1.0
A      1  0.2807524720540  0.0987287668934  0.7507260797502 1.0
A      1  0.3916139160835  0.0986912467257  0.9180912223834 1.0
A      1  0.1147024421439  0.1985348827882  0.0840993902724 1.0
A      1  0.2259926696264  0.1986220479331  0.2511620312984 1.0
A      1  0.1149586334078  0.1986516996679  0.4170441101664 1.0
A      1  0.2244874665359  0.1979869553206  0.5837748481387 1.0
A      1  0.1137778001822  0.1981370656128  0.7506366515696 1.0
A      1  0.2250183389491  0.1980546246994  0.9177232896830 1.0
A      1  0.9480962073678  0.2982102354159  0.0834867873125 1.0
A      1  0.0593247598823  0.2982455773112  0.2502359079014 1.0
A      1  0.9483069989461  0.2977628482119  0.4163446348545 1.0
A      1  0.0576024964670  0.2973784714389  0.5834972881325 1.0
A      1  0.9471256930711  0.2977221600001  0.7503239880316 1.0
A      1  0.0583908065951  0.2979545072804  0.9175016053955 1.0
A      1  0.6145343044341  0.0986134066881  0.0841259778313 1.0
A      1  0.7256576903394  0.0986659161659  0.2500926428542 1.0
A      1  0.6145848974007  0.0983950582691  0.4169734071719 1.0
A      1  0.7251910000870  0.0986764227937  0.5836513428716 1.0
A      1  0.6142834153044  0.0987213462540  0.7505517310378 1.0
A      1  0.7251281063590  0.0986615915916  0.9170657986450 1.0
A      1  0.4478978455185  0.1986550205793  0.0842954900422 1.0
A      1  0.5591134220914  0.1984925699269  0.2505578419898 1.0
A      1  0.4482904067205  0.1987828298045  0.4165825440685 1.0
A      1  0.5590695663399  0.1984748999754  0.5835714363039 1.0
A      1  0.4474977346274  0.1980216736011  0.7515836110048 1.0
A      1  0.5584271685496  0.1980392036936  0.9178279914691 1.0
A      1  0.2812862975634  0.2980436681662  0.0848264575511 1.0
A      1  0.3925842729646  0.2988744881354  0.2509418648767 1.0
A      1  0.2818426543889  0.2993872865124  0.4178721409826 1.0
A      1  0.3921681389253  0.2930600256233  0.5839624435118 1.0
A      1  0.2801281428240  0.2964321853171  0.7507346889843 1.0
A      1  0.3913297349747  0.2984726915657  0.9177544172622 1.0
A      1  0.1141945646839  0.3985494889601  0.0841181111061 1.0
A      1  0.2257716597185  0.3983584710705  0.2500931020663 1.0
A      1  0.1137317405505  0.3984836599335  0.4166434271482 1.0
A      1  0.2210928678640  0.3966282635581  0.5846116100090 1.0
A      1  0.1113371533275  0.3971239774304  0.7509667528004 1.0
A      1  0.2245018234514  0.3967149401002  0.9201747680950 1.0
A      1  0.9479833548906  0.4985651046157  0.0827036536608 1.0
A      1  0.0590621837189  0.4982775759905  0.2494631075874 1.0
A      1  0.9470879336552  0.4981733551570  0.4161831113557 1.0
A      1  0.0564318756128  0.4980741366831  0.5831989202678 1.0
A      1  0.9465086587629  0.4989263748499  0.7497962877719 1.0
A      1  0.0591440230229  0.4986237419464  0.9165171095829 1.0
A      1  0.7813658708705  0.1983167145404  0.0834051550616 1.0
A      1  0.8924109690470  0.1984927672850  0.2500246053936 1.0
A      1  0.7813371972385  0.1979054813368  0.4166212973421 1.0
A      1  0.8916552460276  0.1981145394248  0.5833804752956 1.0
A      1  0.7811010882023  0.1980798784210  0.7503778372275 1.0
A      1  0.8917893295160  0.1984384008185  0.9170557275614 1.0
A      1  0.6149570611628  0.2977861248416  0.0841447815870 1.0
A      1  0.7259811313114  0.2981508407382  0.2498445026683 1.0
A      1  0.6149381291688  0.2981009127020  0.4171170466646 1.0
A      1  0.7255556965213  0.2972568113850  0.5833979330926 1.0
A      1  0.6141260505788  0.2953506485631  0.7506120624763 1.0
A      1  0.7253409095294  0.2985937760177  0.9166701637671 1.0
A      1  0.4475362756394  0.3987169885414  0.0846395560479 1.0
A      1  0.5598532578693  0.3982307259118  0.2492515325936 1.0
A      1  0.4466267062924  0.3975406987387  0.7508779931032 1.0
A      1  0.5578661349276  0.3964902101698  0.9201288347311 1.0
A      1  0.2816963736532  0.4985101812136  0.0842455730036 1.0
A      1  0.3934298644125  0.4993701168596  0.2518705990115 1.0
A      1  0.2793651298433  0.4983110555808  0.4148096607345 1.0
A      1  0.2756405417042  0.4913361956371  0.7570565446260 1.0
A      1  0.3931428635537  0.4992131806451  0.9166464778707 1.0
A      1  0.1144587193553  0.5987229037082  0.0834433910126 1.0
A      1  0.2252655394663  0.5987028900669  0.2495804374772 1.0
A      1  0.1115000459010  0.5987771836094  0.4144116516286 1.0
A      1  0.2183260170100  0.5988806274453  0.5773869462771 1.0
A      1  0.1140746892913  0.5987439436219  0.7493222394193 1.0
A      1  0.2255101124389  0.5987263439496  0.9185504532283 1.0
A      1  0.9479630082301  0.6988287171114  0.0827396848923 1.0
A      1  0.0590142696813  0.6992216125637  0.2495286797124 1.0
A      1  0.9468274454491  0.6992504365347  0.4161678127550 1.0
A      1  0.0563321144646  0.6995482634335  0.5831705435771 1.0
A      1  0.9465152274106  0.6985125014093  0.7497807448181 1.0
A      1  0.0591067127453  0.6987676946287  0.9165551262021 1.0
A      1  0.7819457607403  0.3976944478523  0.0832375117511 1.0
A      1  0.8933580287861  0.3981841544664  0.2492551167659 1.0
A      1  0.7829458819150  0.3964186466898  0.4147328652357 1.0
A      1  0.8929284163109  0.3970836980973  0.5829423542470 1.0
A      1  0.7821776022361  0.3973718490994  0.7495903648029 1.0
A      1  0.8928374272811  0.3981885636357  0.9165916086089 1.0
A      1  0.6156972509122  0.4976921797416  0.0834663335680 1.0
A      1  0.7278448068033  0.4981382945374  0.2484682758063 1.0
A      1  0.7291160836526  0.4940217286498  0.5786763762313 1.0
A      1  0.6161450972009  0.4884734054366  0.7584726384094 1.0
A      1  0.7276908231362  0.4981954696248  0.9182361424502 1.0
A      1  0.4483513815670  0.5985731256695  0.0840292199209 1.0
A      1  0.5620721678731  0.5985720893078  0.2468540493224 1.0
A      1  0.4633114258748  0.5989383401109  0.7514178660568 1.0
A      1  0.5619134420855  0.5986560009803  0.9200215949828 1.0
A      1  0.2819226532437  0.6987339668983  0.0847961631327 1.0
A      1  0.3940647677797  0.6957885977032  0.2543810480709 1.0
A      1  0.2774092222404  0.7007994772766  0.4155545038202 1.0
A      1  0.3863775277489  0.7158362141867  0.5824268409612 1.0
A      1  0.2758733541380  0.7058953024393  0.7570551160844 1.0
A      1  0.3931255228606  0.6981690504643  0.9169238483570 1.0
A      1  0.1142263111918  0.7988178724764  0.0841827886505 1.0
A      1  0.2258001993947  0.7990163136341  0.2501464169952 1.0
A      1  0.1128956312386  0.7995252912387  0.4166990163486 1.0
A      1  0.2207772994739  0.8013270840033  0.5848416607145 1.0
A      1  0.1114024572835  0.8002669677425  0.7510809741277 1.0
A      1  0.2245781288414  0.8005353269183  0.9203140012205 1.0
A      1  0.9480487212926  0.8991171114713  0.0835097623439 1.0
A      1  0.0591691483282  0.8992620595131  0.2502342828935 1.0
A      1  0.9476743635598  0.8995824193164  0.4163338347777 1.0
A      1  0.0572852245198  0.9002739109466  0.5835575829722 1.0
A      1  0.9470727740532  0.8996072907874  0.7503144800724 1.0
A      1  0.0583930230774  0.8993923852959  0.9175479625531 1.0
A      1  0.7820250766866  0.5986625942269  0.0832687036691 1.0
A      1  0.8935689963763  0.5987015172119  0.2492900149726 1.0
A      1  0.7820129585400  0.5986590650859  0.4147732626419 1.0
A      1  0.8913442431170  0.5987513391325  0.5828956120777 1.0
A      1  0.7781758382950  0.5987364052717  0.7484330013340 1.0
A      1  0.8926954214290  0.5986889469704  0.9159134145241 1.0
A      1  0.6156710967646  0.6995221398090  0.0835484870313 1.0
A      1  0.7275699814507  0.6990845792559  0.2485660054074 1.0
A      1  0.6156740492447  0.6985659461619  0.4118972240698 1.0
A      1  0.7285601178545  0.7031786533480  0.5780569510452 1.0
A      1  0.6162121331141  0.7089541258163  0.7585649302533 1.0
A      1  0.7276876078804  0.6991452295800  0.9182870840437 1.0
A      1  0.4473381987578  0.7981641180312  0.0853299154981 1.0
A      1  0.5596235324015  0.7992079350993  0.2492473866692 1.0
A      1  0.4490073316147  0.7963266534843  0.4164859096292 1.0
A      1  0.5599896103731  0.7967986863276  0.5847991043528 1.0
A      1  0.4469152161198  0.8004689246808  0.7517392606083 1.0
A      1  0.5578541413193  0.8007973237274  0.9204690423687 1.0
A      1  0.2812300190020  0.8993005664240  0.0849731753456 1.0
A      1  0.3924282831235  0.8978152278618  0.2513173070383 1.0
A      1  0.2814098811467  0.8987729993912  0.4180722271335 1.0
A      1  0.3919634039982  0.9049423272353  0.5842484653496 1.0
A      1  0.2801711665832  0.9009729406423  0.7509431021495 1.0
A      1  0.3913296386816  0.8989388056691  0.9181827246114 1.0
A      1  0.1146669509409  0.9988468564050  0.0841230413617 1.0
A      1  0.2259120969237  0.9987973232504  0.2512042419395 1.0
A      1  0.1146902704885  0.9990390213325  0.4170848336260 1.0
A      1  0.2243169191532  0.9998464343927  0.5839004945631 1.0
A      1  0.1137528664865  0.9992465558188  0.7506838192090 1.0
A      1  0.2250062804405  0.9992866284774  0.9177815534829 1.0
A      1  0.7818785195690  0.7995919720713  0.0832937533068 1.0
A      1  0.8931368595610  0.7991865629161  0.2493250689023 1.0
A      1  0.7818529509241  0.8002783402009  0.4145154875300 1.0
A      1  0.8925657111463  0.8002701211288  0.5827897118034 1.0
A      1  0.7821277999635  0.7999381999301  0.7494489967183 1.0
A      1  0.8927895503795  0.7991750509161  0.9165874396217 1.0
A      1  0.6148891482188  0.8994680636484  0.0841964232641 1.0
A      1  0.7258378683698  0.8991917016330  0.2498067236327 1.0
A      1  0.6144738485098  0.8982634635484  0.4172065377152 1.0
A      1  0.7254180559577  0.9000623932734  0.5833954012890 1.0
A      1  0.6141696760773  0.9021110834018  0.7507185700841 1.0
A      1  0.7253344747687  0.8987161565594  0.9166872728039 1.0
A      1  0.4478641369214  0.9984317185705  0.0844968442405 1.0
A      1  0.5590403412514  0.9987096506066  0.2506580733854 1.0
A      1  0.4481870078312  0.9984809022428  0.4166614466767 1.0
A      1  0.5590292440629  0.9988213849481  0.5836139428163 1.0
A      1  0.4475085081214  0.9996776457195  0.7517343408775 1.0
A      1  0.5584142733413  0.9992899628268  0.9179069533143 1.0
A      1  0.7813388866549  0.9989745156246  0.0833898685144 1.0
A      1  0.8923197417381  0.9989479899797  0.2500091678116 1.0
A      1  0.7810583007886  0.9990610846735  0.4166107791295 1.0
A      1  0.8915269998268  0.9993704730567  0.5833855079276 1.0
A      1  0.7810905634389  0.9992672399967  0.7503902442212 1.0
A      1  0.8917929077719  0.9989108670376  0.9170596550634 1.0
END
