TITL AB-20764-5019-26 0.0000000000 4458.8459578500 -1488.4608339380 0 0  183 (P1) n - 1
REM
REM Run started: at Fri Oct 6 15:20:09 BST 2023 in /home/michal/install/eddp/airss/examples/1.11
REM pp3 from code version ## 0.9.3 July 2022 commit b0220bf5cbf550a3b7
REM
REM
REM
REM Total runtime: s
REM
REM
REM ./AB.cell (a186c3e4acc5915692489c59fabd1559)
REM ## AIRSS Version 0.9.3 July 2022 commit b0220bf5cbf550a3b7
REM compiler GCC version 11.4.0
REM options -cpp -imultiarch x86_64-linux-gnu -mtune=generic -march=x86-64 -g -Og -fpre-include=/usr/include/finclude/math-vector-fortran.h
REM cmdline: airss.pl -pp3 max 100 -seed AB 
REM seed 429012831 2105221721 1909407016 1186182726 -1329942799 1685515145 763106376 -1869931409
REM
REM AB.pp (46f9ffe235eb1beff4ce53cde2d82919)
REM 
CELL 1.54180   16.99142   16.35000   16.05000   90.00000   90.00000   90.00000
LATT -1
SFAC A  B  
A      1  0.9417258665111  0.0990891028325  0.0845222444517 1.0
A      1  0.0523282398847  0.0991150612949  0.2505480030903 1.0
A      1  0.5426213209934  0.4014067822763  0.5866195117637 1.0
A      1  0.5428013859873  0.5971220057389  0.5864326930701 1.0
A      1  0.5763296117736  0.4992568243562  0.4045354416826 1.0
A      1  0.4299356289754  0.6047116684366  0.4203890287291 1.0
A      1  0.4297600316122  0.3941553533922  0.4210866556267 1.0
B      2  0.7199987876146  0.4992565418689  0.4320393582167 1.0
B      2  0.6649848893778  0.4068122668286  0.4943708801815 1.0
B      2  0.6650969043942  0.5917902557210  0.4942210327109 1.0
B      2  0.3803971970358  0.4791109920410  0.5984028802656 1.0
A      1  0.9428266901719  0.0971166815122  0.4174418244801 1.0
A      1  0.0530426351821  0.0988449348000  0.5843598932882 1.0
A      1  0.9421853367605  0.0988267230185  0.7509590285661 1.0
A      1  0.0528148490416  0.0990697230002  0.9176216695847 1.0
A      1  0.2749787446570  0.0989072824649  0.0833665245702 1.0
A      1  0.3851677714773  0.0985309869847  0.2496464591557 1.0
A      1  0.2754652892158  0.0978433857109  0.4172304028716 1.0
A      1  0.3862345162866  0.0987997636131  0.5843145434097 1.0
A      1  0.2753909428386  0.0989437362114  0.7509929090139 1.0
A      1  0.3861169134469  0.0990822898450  0.9168958908106 1.0
A      1  0.1085509562456  0.1987170502477  0.0835902956643 1.0
A      1  0.2196621453791  0.1981995087853  0.2495888027254 1.0
A      1  0.1115219807655  0.1954336608686  0.4173200916475 1.0
A      1  0.2197355889708  0.1979290080776  0.5849793085181 1.0
A      1  0.1086965083234  0.1984648276139  0.7514811985284 1.0
A      1  0.2195879094786  0.1989328422693  0.9175846495541 1.0
A      1  0.9423821900738  0.2983977395236  0.0839673005684 1.0
A      1  0.0552093731184  0.2986134210703  0.2496828978357 1.0
A      1  0.9531805138627  0.2921024469274  0.4178260987451 1.0
A      1  0.0563680816788  0.2986622232563  0.5853580293716 1.0
A      1  0.9430205674335  0.2984119557132  0.7512146772610 1.0
A      1  0.0535207224902  0.2991938926018  0.9174881461549 1.0
A      1  0.6083600703169  0.0988148485185  0.0824873317506 1.0
A      1  0.7184119053478  0.0984346251783  0.2493576924273 1.0
A      1  0.6064354972043  0.0974727279568  0.4168870646544 1.0
A      1  0.7186428938047  0.0977998536608  0.5854951259839 1.0
A      1  0.6082714199988  0.0995222842847  0.7504050084583 1.0
A      1  0.7194738379283  0.0990579819665  0.9174988510580 1.0
A      1  0.4411336704380  0.1990756393793  0.0827953451237 1.0
A      1  0.5510459096389  0.1964398848795  0.2475790945120 1.0
A      1  0.4392119995388  0.1972324265179  0.4169749508893 1.0
A      1  0.5525237723860  0.2004304688387  0.5829822412198 1.0
A      1  0.4418445774659  0.1992498775455  0.7506291782816 1.0
A      1  0.5526780871384  0.1990633094455  0.9164060574889 1.0
A      1  0.2747533107870  0.2990218985219  0.0836279919805 1.0
A      1  0.3852945428717  0.2980432159265  0.2501103985915 1.0
A      1  0.2713201630616  0.2961721911199  0.4171544881639 1.0
A      1  0.3836074635849  0.2976754824205  0.5861922867883 1.0
A      1  0.2741678623076  0.2985141994756  0.7517209610785 1.0
A      1  0.3860379007562  0.2989488843698  0.9170448550492 1.0
A      1  0.1089019629153  0.3991388797582  0.0838230118859 1.0
A      1  0.2207989744905  0.3990930185389  0.2507786596653 1.0
A      1  0.1093463924267  0.3992657361382  0.4176120982077 1.0
A      1  0.2229385444288  0.3999706640388  0.5841508865044 1.0
A      1  0.1090125559468  0.3993171436630  0.7507826657679 1.0
A      1  0.2198879665731  0.3994063391276  0.9172675884983 1.0
A      1  0.9431563427204  0.4992446651289  0.0833091902841 1.0
A      1  0.0551301378665  0.4992592429317  0.2508098529169 1.0
A      1  0.9417316322583  0.4992487582336  0.4169220633891 1.0
A      1  0.0551637750884  0.4992320385632  0.5839802586249 1.0
A      1  0.9420047916012  0.4992491703964  0.7509458690815 1.0
A      1  0.0535646520947  0.4992323552795  0.9170756991791 1.0
A      1  0.7756366520821  0.1988161501209  0.0838900981542 1.0
A      1  0.8858349819669  0.1996753551197  0.2520141979953 1.0
A      1  0.7740216060675  0.1890047466145  0.4181329752683 1.0
A      1  0.8874295305418  0.1983249928142  0.5837987522123 1.0
A      1  0.7759222640620  0.1977613491734  0.7523803047357 1.0
A      1  0.8866730982292  0.1990788869633  0.9177226732768 1.0
A      1  0.6082286568886  0.2981247596896  0.0819100754257 1.0
A      1  0.7183638231289  0.2972847633027  0.2484034377415 1.0
A      1  0.6035117123277  0.2931979201486  0.4106217778358 1.0
A      1  0.7218880040717  0.2947129459655  0.5880193491633 1.0
A      1  0.6082465075930  0.2999129432116  0.7505525442616 1.0
A      1  0.7196145824921  0.2987184845568  0.9187646852664 1.0
A      1  0.4407280029855  0.3992307478943  0.0827598844744 1.0
A      1  0.5511218576970  0.3953258229797  0.2448202474867 1.0
A      1  0.4395088275124  0.3997974747031  0.7512064604314 1.0
A      1  0.5526397786162  0.3993003323002  0.9173481945346 1.0
A      1  0.2750976197380  0.4992465472769  0.0845274500328 1.0
A      1  0.3876873023813  0.4992460316933  0.2522364573023 1.0
A      1  0.2726360341159  0.4992627673444  0.4182436356192 1.0
A      1  0.2757540020341  0.4990476803161  0.7490710724616 1.0
A      1  0.3857197098699  0.4992093452130  0.9173825214596 1.0
A      1  0.1089038139113  0.5993540158418  0.0837983953904 1.0
A      1  0.2208155222427  0.5994422853390  0.2507379059500 1.0
A      1  0.1093562299006  0.5992461620253  0.4176015682059 1.0
A      1  0.2229958664728  0.5983531211776  0.5841646638970 1.0
A      1  0.1090448148542  0.5991128643606  0.7507686768971 1.0
A      1  0.2199065192059  0.5990119210018  0.9172048497238 1.0
A      1  0.9423913171047  0.7001093496231  0.0839432769292 1.0
A      1  0.0552237749580  0.6999084492036  0.2496619618867 1.0
A      1  0.9532098405008  0.7064272943152  0.4178183913114 1.0
A      1  0.0564141219193  0.6998097806010  0.5853450532920 1.0
A      1  0.9430403042390  0.7000790485726  0.7511976107270 1.0
A      1  0.0535403975941  0.6992748373299  0.9174611154482 1.0
A      1  0.7750973816315  0.3997651535576  0.0861429566696 1.0
A      1  0.8899276100384  0.3991918850074  0.2478910477222 1.0
A      1  0.7932331118796  0.3729698722708  0.4124902394220 1.0
A      1  0.8903043012159  0.3972730711891  0.5842350818533 1.0
A      1  0.7773552673861  0.3963389244243  0.7562703175193 1.0
A      1  0.8872293886965  0.3990585030091  0.9191645456562 1.0
A      1  0.6090424794299  0.4992602882331  0.0847540262158 1.0
A      1  0.7198171727154  0.4992643346765  0.2613239309254 1.0
A      1  0.7305049271803  0.4993040777109  0.6002144644358 1.0
A      1  0.6085227826364  0.4992085375655  0.7522970499091 1.0
A      1  0.7199110849294  0.4992502064997  0.9191796585025 1.0
A      1  0.4407276204264  0.5992629590912  0.0827038533373 1.0
A      1  0.5511135212716  0.6032226161357  0.2447902906020 1.0
A      1  0.4394392544562  0.5982936443040  0.7509094011352 1.0
A      1  0.5526159304025  0.5991678803844  0.9172637602193 1.0
A      1  0.2747373655418  0.6994754467313  0.0835113309936 1.0
A      1  0.3852506199476  0.7006125648511  0.2498518531433 1.0
A      1  0.2713055218474  0.7024035120995  0.4170449462929 1.0
A      1  0.3837027106990  0.7011366661582  0.5858945453464 1.0
A      1  0.2741793995096  0.6999104654697  0.7516620039201 1.0
A      1  0.3860748605384  0.6994593887811  0.9169047538581 1.0
A      1  0.1085487819328  0.7997870906140  0.0835539441909 1.0
A      1  0.2196467602824  0.8003672839474  0.2495242878103 1.0
A      1  0.1115240402653  0.8031160177938  0.4172896202611 1.0
A      1  0.2197328370059  0.8005849779800  0.5849366476965 1.0
A      1  0.1087061962722  0.8000085625872  0.7514585477307 1.0
A      1  0.2196064493612  0.7995263800799  0.9175304842471 1.0
A      1  0.9417246798294  0.8994174587410  0.0845112191474 1.0
A      1  0.0523250182624  0.8994171481855  0.2505327264668 1.0
A      1  0.9428280561469  0.9014136488867  0.4174337863765 1.0
A      1  0.0530492389260  0.8996595907956  0.5843498702483 1.0
A      1  0.9421874573860  0.8996706789534  0.7509514944487 1.0
A      1  0.0528201174386  0.8994081504893  0.9176076178625 1.0
A      1  0.7751021648598  0.5987445550398  0.0861223298059 1.0
A      1  0.8899544570520  0.5993191510784  0.2478486497295 1.0
A      1  0.7932903407903  0.6255293064267  0.4124128202257 1.0
A      1  0.8903292008829  0.6012463342743  0.5842134133581 1.0
A      1  0.7773634351950  0.6021780761147  0.7562804617791 1.0
A      1  0.8872383881569  0.5994338644413  0.9191602055118 1.0
A      1  0.6082191768588  0.7003799551070  0.0818571494292 1.0
A      1  0.7183693291121  0.7012348786527  0.2483565309313 1.0
A      1  0.6035709438117  0.7054390564843  0.4105574979171 1.0
A      1  0.7219242249948  0.7038284125558  0.5879933465523 1.0
A      1  0.6082146662920  0.6985305564694  0.7504896212039 1.0
A      1  0.7196061280975  0.6997807405646  0.9187394693935 1.0
A      1  0.4411363637669  0.7994488355476  0.0826781457444 1.0
A      1  0.5510410534889  0.8021137535857  0.2475015584783 1.0
A      1  0.4392582461973  0.8015077237724  0.4168156878099 1.0
A      1  0.5525865992310  0.7981823471892  0.5829150507272 1.0
A      1  0.4418534212903  0.7991614798734  0.7505587153824 1.0
A      1  0.5526917096320  0.7994272510184  0.9163487097949 1.0
A      1  0.2749778885924  0.8995997464342  0.0833261860856 1.0
A      1  0.3851594428332  0.9000869189543  0.2495825045827 1.0
A      1  0.2754678854836  0.9007318515736  0.4171992602556 1.0
A      1  0.3862477553262  0.8998554136825  0.5842727097745 1.0
A      1  0.2753996076070  0.8995198190517  0.7509593198298 1.0
A      1  0.3861234165635  0.8993825207179  0.9168470299755 1.0
A      1  0.1082720637030  0.9992523773124  0.0839567950641 1.0
A      1  0.2187046334741  0.9992819209011  0.2502115484247 1.0
A      1  0.1091199504473  0.9992721362526  0.4173626039011 1.0
A      1  0.2195640240544  0.9992654387128  0.5843288721932 1.0
A      1  0.1087556417554  0.9992399375515  0.7509480572465 1.0
A      1  0.2193730990425  0.9992346433662  0.9172450577711 1.0
A      1  0.7756387576561  0.7996941220082  0.0838643742111 1.0
A      1  0.8858417124754  0.7988355606216  0.2520013396413 1.0
A      1  0.7740333995296  0.8095110056923  0.4181223582217 1.0
A      1  0.8874564583983  0.8001902925747  0.5837896998778 1.0
A      1  0.7759189016254  0.8007434508612  0.7523659198206 1.0
A      1  0.8866789418897  0.7994093753109  0.9177031943535 1.0
A      1  0.6083641362255  0.8997049279790  0.0824585987199 1.0
A      1  0.7184162330841  0.9000810370756  0.2493421759889 1.0
A      1  0.6064605454733  0.9011554437198  0.4168558520939 1.0
A      1  0.7186630922749  0.9007463569703  0.5854823632339 1.0
A      1  0.6082702205396  0.8989715131708  0.7503819260628 1.0
A      1  0.7194788087839  0.8994459452384  0.9174835024509 1.0
A      1  0.4416646478467  0.9992633731863  0.0830395425452 1.0
A      1  0.5518082810323  0.9992771109960  0.2493533199006 1.0
A      1  0.4409859780838  0.9993404106664  0.4167954103615 1.0
A      1  0.5520520365477  0.9992969306381  0.5842261681363 1.0
A      1  0.4418587607760  0.9992347163782  0.7507055293181 1.0
A      1  0.5527570271442  0.9992477524523  0.9164394873857 1.0
A      1  0.7752242362053  0.9992567189728  0.0835395692706 1.0
A      1  0.8853462190857  0.9992585761604  0.2507088917293 1.0
A      1  0.7744250482101  0.9992648810467  0.4173032893844 1.0
A      1  0.8857896641437  0.9992602766959  0.5843641106209 1.0
A      1  0.7752728413241  0.9992549443746  0.7515954971142 1.0
A      1  0.8863302662133  0.9992460598040  0.9176737620956 1.0
END
