TITL AB-20764-5019-77 0.0000000000 4458.8459578500 -1491.4653550251 0 0  183 (P1) n - 1
REM
REM Run started: at Fri Oct 6 15:22:02 BST 2023 in /home/michal/install/eddp/airss/examples/1.11
REM pp3 from code version ## 0.9.3 July 2022 commit b0220bf5cbf550a3b7
REM
REM
REM
REM Total runtime: s
REM
REM
REM ./AB.cell (a186c3e4acc5915692489c59fabd1559)
REM ## AIRSS Version 0.9.3 July 2022 commit b0220bf5cbf550a3b7
REM compiler GCC version 11.4.0
REM options -cpp -imultiarch x86_64-linux-gnu -mtune=generic -march=x86-64 -g -Og -fpre-include=/usr/include/finclude/math-vector-fortran.h
REM cmdline: airss.pl -pp3 max 100 -seed AB 
REM seed -453072796 312069911 1376459056 -1032781519 35887963 -229499751 -552782834 1931953277
REM
REM AB.pp (46f9ffe235eb1beff4ce53cde2d82919)
REM 
CELL 1.54180   16.99142   16.35000   16.05000   90.00000   90.00000   90.00000
LATT -1
SFAC A  B  
A      1  0.9461001898613  0.1026434973988  0.0812799786840 1.0
A      1  0.0563619631536  0.1015794127953  0.2474635852213 1.0
A      1  0.4003525314958  0.5153315433576  0.5625592336633 1.0
A      1  0.5234123699296  0.5429416544036  0.4084877489702 1.0
A      1  0.5658593187824  0.4181962911468  0.5614579919420 1.0
A      1  0.4361597346392  0.3829632454598  0.4134025237954 1.0
A      1  0.5629561344035  0.6116472993017  0.5861361693800 1.0
B      2  0.4000684549626  0.6286975221716  0.4281384365815 1.0
B      2  0.6596909576491  0.4811122846291  0.4279343437280 1.0
B      2  0.3486657715815  0.4051152386017  0.6572366890893 1.0
B      2  0.4976938214548  0.3175703618629  0.6558612539557 1.0
A      1  0.9450311915161  0.1015432120376  0.4145538573815 1.0
A      1  0.0544358027883  0.1008281585972  0.5815809984062 1.0
A      1  0.9457457990848  0.1027391916722  0.7483671442158 1.0
A      1  0.0571301658994  0.1023274537464  0.9148308471553 1.0
A      1  0.2793198990102  0.1018858998309  0.0805047545087 1.0
A      1  0.3893282896858  0.0990809356267  0.2459533758653 1.0
A      1  0.2787182221608  0.1004313910414  0.4146614841819 1.0
A      1  0.3899540781663  0.0943793644743  0.5813092905749 1.0
A      1  0.2789240351835  0.1012086612046  0.7477618178022 1.0
A      1  0.3904355079783  0.1022477420419  0.9148215059241 1.0
A      1  0.1121913152576  0.2022929552617  0.0806823452260 1.0
A      1  0.2223799455953  0.1996957146529  0.2458347774050 1.0
A      1  0.1099681940653  0.1998907957405  0.4139137708911 1.0
A      1  0.2173776489086  0.1975037185231  0.5815902569565 1.0
A      1  0.1116040211688  0.2019476190650  0.7487818942839 1.0
A      1  0.2236649986889  0.2018870531589  0.9150935853992 1.0
A      1  0.9461819409827  0.3027621719950  0.0813587923682 1.0
A      1  0.0576310825764  0.3018876193530  0.2472688316722 1.0
A      1  0.9475239006838  0.3006164980385  0.4144034350085 1.0
A      1  0.0558520799479  0.3014755014022  0.5813037175600 1.0
A      1  0.9467644624542  0.3028632613815  0.7487076998563 1.0
A      1  0.0578714983003  0.3029547386292  0.9147126912421 1.0
A      1  0.6131989454995  0.1028629854075  0.0810428600434 1.0
A      1  0.7242016399856  0.1026872903594  0.2473002277974 1.0
A      1  0.6144037612863  0.1004370666502  0.4127012879257 1.0
A      1  0.7245104184378  0.1024774046784  0.5814390103078 1.0
A      1  0.6125520250743  0.1042239097478  0.7472901942046 1.0
A      1  0.7241190622233  0.1033298032683  0.9145223898098 1.0
A      1  0.4464705073840  0.2014000828342  0.0810332560035 1.0
A      1  0.5573035952418  0.2027329405835  0.2471936904506 1.0
A      1  0.4471333200346  0.1915653602911  0.4097008290535 1.0
A      1  0.5586340200995  0.1984725171950  0.5758024030394 1.0
A      1  0.4445350143673  0.2009195334107  0.7493632720190 1.0
A      1  0.5576712651867  0.2035679310855  0.9153412844526 1.0
A      1  0.2786210338851  0.3021638644191  0.0811052920168 1.0
A      1  0.3887860848093  0.2987148932626  0.2449257616570 1.0
A      1  0.2708317798658  0.2980588284997  0.4096054254219 1.0
A      1  0.3797631609676  0.2829531937900  0.5679757825712 1.0
A      1  0.2782821015913  0.2994737484739  0.7501045850235 1.0
A      1  0.3906212124694  0.3025018267422  0.9180273237906 1.0
A      1  0.1126153823783  0.4027264401273  0.0813372791289 1.0
A      1  0.2239866892552  0.4022709304494  0.2473601133981 1.0
A      1  0.1103872772910  0.4026004602594  0.4129606370363 1.0
A      1  0.2195531558486  0.4007184745654  0.5760933352826 1.0
A      1  0.1139637798398  0.4026154792434  0.7475283231188 1.0
A      1  0.2243979896191  0.4030299843732  0.9156737382742 1.0
A      1  0.9464366131740  0.5030390420508  0.0815244626230 1.0
A      1  0.0571047664091  0.5025493884670  0.2477309007600 1.0
A      1  0.9457355933936  0.5026182683046  0.4150885834069 1.0
A      1  0.0572616594085  0.5026041318707  0.5817621750282 1.0
A      1  0.9471506307059  0.5031482276651  0.7486531402322 1.0
A      1  0.0580123240034  0.5028973657282  0.9148166798139 1.0
A      1  0.7799877700996  0.2027831556197  0.0817320408511 1.0
A      1  0.8908030138575  0.2024766515552  0.2480831961481 1.0
A      1  0.7794805041091  0.2009232775241  0.4148847546151 1.0
A      1  0.8897166894804  0.2027993894634  0.5814594089531 1.0
A      1  0.7804802065194  0.2030455942806  0.7484347282148 1.0
A      1  0.8913810658179  0.2027475846308  0.9150043801770 1.0
A      1  0.6133600996618  0.3026252350101  0.0844266731606 1.0
A      1  0.7248184399639  0.3024833203734  0.2482646161307 1.0
A      1  0.6140884705556  0.3027562273226  0.4121987870599 1.0
A      1  0.7227704945165  0.3035149249053  0.5820974410512 1.0
A      1  0.6173661235844  0.3038463716902  0.7522848299126 1.0
A      1  0.7261590079250  0.3030026484456  0.9169798771487 1.0
A      1  0.4466772877376  0.4030261810021  0.0848523652687 1.0
A      1  0.5571729005655  0.4055358241035  0.2528404133833 1.0
A      1  0.4517961483696  0.4121997447745  0.7685167152738 1.0
A      1  0.5615970966236  0.4029201048388  0.9220243560768 1.0
A      1  0.2793215621977  0.5027067305943  0.0846200173150 1.0
A      1  0.3931371902134  0.5031050714808  0.2530275561268 1.0
A      1  0.2793734800367  0.5033189754798  0.4127841291486 1.0
A      1  0.2780978106166  0.5068664941104  0.7527473221765 1.0
A      1  0.3887878177302  0.5061667685587  0.9220813942692 1.0
A      1  0.1126774900319  0.6029158418230  0.0821179239667 1.0
A      1  0.2232290416493  0.6025534817237  0.2486453423356 1.0
A      1  0.1110201380040  0.6017864968555  0.4152878191180 1.0
A      1  0.2255325067130  0.6008720139214  0.5821331081563 1.0
A      1  0.1126334238909  0.6036137895130  0.7485222614736 1.0
A      1  0.2231868337149  0.6043167140165  0.9172391857692 1.0
A      1  0.9461826079245  0.7028306482756  0.0819557540288 1.0
A      1  0.0569021028054  0.7023795783632  0.2486017931492 1.0
A      1  0.9451733171081  0.7022947081988  0.4148946295977 1.0
A      1  0.0581789903773  0.7023655868777  0.5815907918359 1.0
A      1  0.9467010493554  0.7034797978427  0.7484687583405 1.0
A      1  0.0571928665611  0.7030787279052  0.9153198576932 1.0
A      1  0.7798314191248  0.4035970394438  0.0829731782071 1.0
A      1  0.8914759692528  0.4025470974744  0.2477876963636 1.0
A      1  0.7860168737811  0.3972122796278  0.4153659711410 1.0
A      1  0.8920542940026  0.4022380529115  0.5823900914659 1.0
A      1  0.7815674841004  0.4035062526310  0.7487785473320 1.0
A      1  0.8916120083131  0.4031172063888  0.9154703019553 1.0
A      1  0.6144956820939  0.5031746014503  0.0824268025887 1.0
A      1  0.7222254962024  0.5021351728569  0.2538273254570 1.0
A      1  0.7293844276520  0.5050488414904  0.5814037288453 1.0
A      1  0.6157387211573  0.5035179453842  0.7465045998327 1.0
A      1  0.7254397174405  0.5036316550487  0.9150264153815 1.0
A      1  0.4461001705546  0.6037546925765  0.0824346191136 1.0
A      1  0.5614422589738  0.6096259083227  0.2371451713572 1.0
A      1  0.4459299450704  0.6049131319418  0.7466420512719 1.0
A      1  0.5572848031566  0.6023225161356  0.9139989692936 1.0
A      1  0.2801425673198  0.7028526707954  0.0830260544490 1.0
A      1  0.3907211000836  0.6994771673768  0.2533910335373 1.0
A      1  0.2705171046582  0.7060333049442  0.4152635916587 1.0
A      1  0.3899666142697  0.7058048880425  0.5811869542105 1.0
A      1  0.2793036941729  0.7041811181014  0.7488018683198 1.0
A      1  0.3907937323210  0.7038013292952  0.9150173144419 1.0
A      1  0.1127861141237  0.8025549360149  0.0815945527035 1.0
A      1  0.2230323121971  0.8024392195743  0.2476804936914 1.0
A      1  0.1094937871217  0.8038208632051  0.4148511375063 1.0
A      1  0.2224698379379  0.8024384745947  0.5825619654272 1.0
A      1  0.1126088392536  0.8032089039624  0.7488597642026 1.0
A      1  0.2238844535236  0.8030564565853  0.9155001315881 1.0
A      1  0.9464470771264  0.9029880593169  0.0812823247112 1.0
A      1  0.0567612627795  0.9024665283749  0.2477035639351 1.0
A      1  0.9455898883310  0.9030583250266  0.4146997029463 1.0
A      1  0.0564466821730  0.9022733432329  0.5819378117586 1.0
A      1  0.9462530708981  0.9033855578981  0.7485228862620 1.0
A      1  0.0572753272063  0.9028115420922  0.9150279191446 1.0
A      1  0.7796910826399  0.6028588108740  0.0827076098049 1.0
A      1  0.8902663471644  0.6021630797918  0.2487106750410 1.0
A      1  0.7778772202299  0.6014307572622  0.4155014050339 1.0
A      1  0.8927264220839  0.6034795344461  0.5817649241329 1.0
A      1  0.7810460490201  0.6040310754827  0.7485293501076 1.0
A      1  0.8914676673408  0.6030717179498  0.9153403418607 1.0
A      1  0.6146989952271  0.7055263868223  0.0771294126489 1.0
A      1  0.7259832447886  0.7042548463423  0.2473999746006 1.0
A      1  0.6164296708662  0.7067884673724  0.4140700971915 1.0
A      1  0.7272580048391  0.7051795926340  0.5821833727471 1.0
A      1  0.6147378146073  0.7051741104292  0.7506192933900 1.0
A      1  0.7254409374559  0.7031854111002  0.9146699005132 1.0
A      1  0.4464422826255  0.8020518808564  0.0824101979166 1.0
A      1  0.5576638691707  0.8046894239909  0.2473530546211 1.0
A      1  0.4461859252064  0.7968091688314  0.4152842275704 1.0
A      1  0.5583595836231  0.8055025323984  0.5819362254319 1.0
A      1  0.4469867865545  0.8032619211253  0.7483563474639 1.0
A      1  0.5571638922544  0.8040756016659  0.9145051597952 1.0
A      1  0.2796003629763  0.9024719542822  0.0814426967152 1.0
A      1  0.3900035901083  0.9000114872421  0.2481950066875 1.0
A      1  0.2788166804933  0.9018848519147  0.4149336344164 1.0
A      1  0.3900594391584  0.9005230294858  0.5813997953955 1.0
A      1  0.2796857033285  0.9026100115443  0.7484099065578 1.0
A      1  0.3905960518404  0.9027719571705  0.9150670657319 1.0
A      1  0.1128795276635  0.0024711500171  0.0812434357404 1.0
A      1  0.2231389949756  0.0011323801907  0.2479153593411 1.0
A      1  0.1120111193248  0.0019926604415  0.4146774571618 1.0
A      1  0.2222372968283  0.0003159118634  0.5814411546829 1.0
A      1  0.1124883375578  0.0025635493801  0.7482549691244 1.0
A      1  0.2237433336418  0.0023097091310  0.9146266907848 1.0
A      1  0.7804927219842  0.8036666880696  0.0811495697435 1.0
A      1  0.8912756664119  0.8029411151657  0.2479881412616 1.0
A      1  0.7810367567146  0.8033834234015  0.4146049832013 1.0
A      1  0.8919229324885  0.8031832365980  0.5817072195251 1.0
A      1  0.7806350078879  0.8041959200902  0.7485309859618 1.0
A      1  0.8911679683223  0.8031074746704  0.9149957008575 1.0
A      1  0.6133155840033  0.9036968625534  0.0808929763129 1.0
A      1  0.7242307168953  0.9032367206622  0.2476699207591 1.0
A      1  0.6135274561565  0.9027346678497  0.4141942508556 1.0
A      1  0.7247747895618  0.9032857952074  0.5813609450834 1.0
A      1  0.6137430908852  0.9041348010797  0.7483552315592 1.0
A      1  0.7241811691736  0.9031202683050  0.9148098663545 1.0
A      1  0.4464230608901  0.0015968153461  0.0808559537159 1.0
A      1  0.5569304740278  0.0029715592158  0.2472159033798 1.0
A      1  0.4464403354501  0.9967211032288  0.4138696809494 1.0
A      1  0.5579562424341  0.0018870889424  0.5809466869685 1.0
A      1  0.4467235169967  0.0017164606789  0.7485794859310 1.0
A      1  0.5575689771524  0.0037084059321  0.9144412130046 1.0
A      1  0.7797582299385  0.0031266324267  0.0809906403646 1.0
A      1  0.8903192815130  0.0025151797235  0.2476326207162 1.0
A      1  0.7797235494390  0.0021202672090  0.4144016722367 1.0
A      1  0.8899230215864  0.0024176787025  0.5816965723951 1.0
A      1  0.7794444579558  0.0035611306341  0.7483632474338 1.0
A      1  0.8905734360931  0.0028744066686  0.9148199486056 1.0
END
