TITL AB-20764-5019-544 0.0000000000 4458.8459578500 -1490.0378333457 0 0  183 (P1) n - 1
REM
REM Run started: at Fri Oct 6 15:39:37 BST 2023 in /home/michal/install/eddp/airss/examples/1.11
REM pp3 from code version ## 0.9.3 July 2022 commit b0220bf5cbf550a3b7
REM
REM
REM
REM Total runtime: s
REM
REM
REM ./AB.cell (a186c3e4acc5915692489c59fabd1559)
REM ## AIRSS Version 0.9.3 July 2022 commit b0220bf5cbf550a3b7
REM compiler GCC version 11.4.0
REM options -cpp -imultiarch x86_64-linux-gnu -mtune=generic -march=x86-64 -g -Og -fpre-include=/usr/include/finclude/math-vector-fortran.h
REM cmdline: airss.pl -pp3 max 100 -seed AB 
REM seed -1229849227 -1876244091 -485256542 -545606740 1231837455 203851768 1165800949 1885409233
REM
REM AB.pp (46f9ffe235eb1beff4ce53cde2d82919)
REM 
CELL 1.54180   16.99142   16.35000   16.05000   90.00000   90.00000   90.00000
LATT -1
SFAC A  B  
A      1  0.9466498481907  0.1015723809716  0.0829534958989 1.0
A      1  0.0569356732622  0.1012155573153  0.2492168078548 1.0
A      1  0.4569259579691  0.4181066838000  0.4048324602561 1.0
A      1  0.4978401386260  0.6040921823674  0.4900981372286 1.0
A      1  0.3831413012080  0.5058921504424  0.5994381362500 1.0
A      1  0.6278318605349  0.5020294247455  0.4061180365393 1.0
A      1  0.5568984676654  0.4313895783272  0.5732164089750 1.0
B      2  0.3385473789453  0.4020541018012  0.4955248258905 1.0
B      2  0.5973182253352  0.6004195786432  0.6170997293906 1.0
B      2  0.3977584633292  0.6026963358358  0.3706624569262 1.0
B      2  0.5115778075603  0.3123125208519  0.6590619063818 1.0
A      1  0.9450448733795  0.1014723655507  0.4162680089544 1.0
A      1  0.0550796335698  0.1007854499220  0.5828970543819 1.0
A      1  0.9462822144702  0.1010825450008  0.7494226941518 1.0
A      1  0.0574003215545  0.1014804424828  0.9161662085157 1.0
A      1  0.2802045404057  0.1015381208560  0.0825393538161 1.0
A      1  0.3912025198663  0.1025889691334  0.2501495683961 1.0
A      1  0.2799105124265  0.0993606465387  0.4162234418037 1.0
A      1  0.3904389707289  0.0963131457652  0.5827822775263 1.0
A      1  0.2796529779742  0.1019386179581  0.7492632091000 1.0
A      1  0.3906325379785  0.1013740293061  0.9171848125453 1.0
A      1  0.1127966120172  0.2016020419846  0.0824744271552 1.0
A      1  0.2233222065150  0.1995859780898  0.2466828766859 1.0
A      1  0.1104291048895  0.1995233664789  0.4156296275862 1.0
A      1  0.2195454277817  0.1989750542369  0.5822580132768 1.0
A      1  0.1123203380355  0.2014261075762  0.7499955969615 1.0
A      1  0.2239040186524  0.2012874785963  0.9167743404115 1.0
A      1  0.9465663446437  0.3014178173643  0.0832466359405 1.0
A      1  0.0582681975668  0.3014125481300  0.2498030711651 1.0
A      1  0.9469802603858  0.3009512323521  0.4161850068442 1.0
A      1  0.0548452700903  0.3004251885603  0.5833113601544 1.0
A      1  0.9458857949720  0.3010033659170  0.7501841429507 1.0
A      1  0.0573905102789  0.3012701509992  0.9170278393164 1.0
A      1  0.6136130194327  0.1017450524849  0.0832526042383 1.0
A      1  0.7246948102419  0.1019380079613  0.2492911007475 1.0
A      1  0.6131221270681  0.1003913594723  0.4134725050036 1.0
A      1  0.7245673802313  0.0998372732516  0.5826530433998 1.0
A      1  0.6132509889323  0.1007869173799  0.7492193648761 1.0
A      1  0.7242600919036  0.1019245516173  0.9161862013551 1.0
A      1  0.4467179395571  0.2020496411532  0.0841651652975 1.0
A      1  0.5581815735714  0.2027990542802  0.2498831263848 1.0
A      1  0.4453450489737  0.2048053758496  0.4159625327795 1.0
A      1  0.5590852373291  0.1909590126689  0.5775706627219 1.0
A      1  0.4469352560007  0.1996685171785  0.7532615067271 1.0
A      1  0.5576588477277  0.2009841404465  0.9186640428838 1.0
A      1  0.2797246127507  0.3018440539305  0.0835912244876 1.0
A      1  0.3916077506288  0.3035266875704  0.2498290834018 1.0
A      1  0.2736051655175  0.2940709063903  0.4094463169414 1.0
A      1  0.3833025125445  0.2883314196505  0.5863717850690 1.0
A      1  0.2782566366981  0.3017272229861  0.7519568976819 1.0
A      1  0.3903805109154  0.3012594767320  0.9184190137909 1.0
A      1  0.1123267705974  0.4017249055434  0.0832662791930 1.0
A      1  0.2237573547131  0.4019503572570  0.2484506000116 1.0
A      1  0.1132312996853  0.4015113033971  0.4171843651995 1.0
A      1  0.2170062748854  0.4005592227367  0.5885635342497 1.0
A      1  0.1100068551462  0.4013352935533  0.7520616304666 1.0
A      1  0.2234032560250  0.4011622268233  0.9182739360310 1.0
A      1  0.9466820684408  0.5019703431846  0.0827457306205 1.0
A      1  0.0588719034301  0.5021312435546  0.2498018413907 1.0
A      1  0.9477746521729  0.5014621153182  0.4160184061057 1.0
A      1  0.0553968809450  0.5018338663263  0.5833773422399 1.0
A      1  0.9456181117669  0.5020432288332  0.7496872672493 1.0
A      1  0.0574598637296  0.5022213083203  0.9168907795290 1.0
A      1  0.7806244701994  0.2011185769162  0.0840551391054 1.0
A      1  0.8911686117583  0.2017841728890  0.2501950257944 1.0
A      1  0.7783822181214  0.2018954412838  0.4171558865428 1.0
A      1  0.8885995513893  0.2019392202363  0.5827345564968 1.0
A      1  0.7814909874044  0.2001476847273  0.7497672684735 1.0
A      1  0.8916903907843  0.2011740378852  0.9167600916816 1.0
A      1  0.6144447881856  0.3013955448327  0.0827485122852 1.0
A      1  0.7254778993958  0.3023157665738  0.2502074121195 1.0
A      1  0.6122964677793  0.3035295528431  0.4174133977967 1.0
A      1  0.7185477120733  0.3037464606047  0.5849831607666 1.0
A      1  0.6216581881841  0.3000564995619  0.7604101934153 1.0
A      1  0.7277978368095  0.3014430498901  0.9200637482357 1.0
A      1  0.4467184186964  0.4019894545641  0.0820203325325 1.0
A      1  0.5613520663860  0.4025800868034  0.2442126292871 1.0
A      1  0.4417667272900  0.4069043025176  0.7590568944572 1.0
A      1  0.5580357705703  0.4019966329995  0.9187546496939 1.0
A      1  0.2779510240745  0.5025072437783  0.0820777385365 1.0
A      1  0.3889089938329  0.5025315668703  0.2426376621904 1.0
A      1  0.2741235122956  0.5096117241399  0.4095263051509 1.0
A      1  0.2740345796946  0.5030711846171  0.7560657878331 1.0
A      1  0.3894160635029  0.5045699163407  0.9194601547015 1.0
A      1  0.1118402475849  0.6025305602594  0.0829218150013 1.0
A      1  0.2234140280712  0.6049903108094  0.2467568656907 1.0
A      1  0.1109508010064  0.6038362980786  0.4158988078912 1.0
A      1  0.2199189267486  0.6018803133719  0.5834771682588 1.0
A      1  0.1103545687006  0.6024582356240  0.7501963665149 1.0
A      1  0.2222280900852  0.6033975783504  0.9183361561405 1.0
A      1  0.9465466317003  0.7027338774628  0.0819768777146 1.0
A      1  0.0579364834708  0.7032615728230  0.2488465343070 1.0
A      1  0.9480032080085  0.7035275315890  0.4155706604114 1.0
A      1  0.0562497876555  0.7027549721827  0.5831749729988 1.0
A      1  0.9455195737408  0.7023312801198  0.7495254523251 1.0
A      1  0.0569130288868  0.7028157171686  0.9162533349827 1.0
A      1  0.7809549763520  0.4017641720124  0.0827768617241 1.0
A      1  0.8929983060468  0.4017190824231  0.2492787430815 1.0
A      1  0.7837923790801  0.3998832976711  0.4161337587116 1.0
A      1  0.8903487936394  0.4010484452644  0.5832786588484 1.0
A      1  0.7814888925851  0.4022003135442  0.7500765923371 1.0
A      1  0.8921589378648  0.4019994088378  0.9165386955943 1.0
A      1  0.6140143053483  0.5037132911642  0.0826380351478 1.0
A      1  0.7292496397818  0.5031237818860  0.2444259513950 1.0
A      1  0.7279628469874  0.5040816378720  0.5816091600649 1.0
A      1  0.6132649188973  0.5000023289043  0.7507001198021 1.0
A      1  0.7248889073712  0.5014171031803  0.9160131146469 1.0
A      1  0.4471340049098  0.6035170372822  0.0823609667344 1.0
A      1  0.5541480645788  0.6029189204630  0.2537338248004 1.0
A      1  0.4488163844996  0.6055654988188  0.7512001318013 1.0
A      1  0.5580064511957  0.6019082646480  0.9166040206020 1.0
A      1  0.2794112488100  0.7030588126262  0.0817130166323 1.0
A      1  0.3897264471090  0.7050949482407  0.2455808709683 1.0
A      1  0.2792618543090  0.7039599926178  0.4170543402531 1.0
A      1  0.3810515482898  0.7068791944454  0.5901160721679 1.0
A      1  0.2767507006258  0.7018404246890  0.7529129783013 1.0
A      1  0.3903460839717  0.7031144821582  0.9165782438695 1.0
A      1  0.1131053667570  0.8025411060477  0.0826422758524 1.0
A      1  0.2239286336298  0.8033066047672  0.2493122625690 1.0
A      1  0.1131952563933  0.8030165382973  0.4158904154418 1.0
A      1  0.2201623154018  0.8034533310133  0.5836723793252 1.0
A      1  0.1117624486251  0.8024945066689  0.7501394652103 1.0
A      1  0.2234522592966  0.8033381332313  0.9166212242249 1.0
A      1  0.9467066500101  0.9023828125693  0.0823078323881 1.0
A      1  0.0575965547703  0.9025116493749  0.2490023751087 1.0
A      1  0.9475398763743  0.9030997860507  0.4157278604443 1.0
A      1  0.0558592173707  0.9023209366827  0.5829914769144 1.0
A      1  0.9458639843384  0.9019589540937  0.7495004125182 1.0
A      1  0.0570309345907  0.9024410166784  0.9161599364449 1.0
A      1  0.7812778263362  0.6026297392350  0.0802473183488 1.0
A      1  0.8939179384345  0.6025166154118  0.2481374789458 1.0
A      1  0.7859249975960  0.6036068534357  0.4139409927929 1.0
A      1  0.8919468573970  0.6025950776751  0.5827002211453 1.0
A      1  0.7795933731623  0.6018090825875  0.7493200720203 1.0
A      1  0.8913146386491  0.6020639754838  0.9154673673144 1.0
A      1  0.6134631400510  0.7021336624624  0.0830601955818 1.0
A      1  0.7271790308986  0.7016836658633  0.2453863828018 1.0
A      1  0.6248946622044  0.7079775557528  0.4090593002800 1.0
A      1  0.7243194044979  0.7006419748114  0.5812552172608 1.0
A      1  0.6140911785398  0.7012872000539  0.7499428076046 1.0
A      1  0.7243998931222  0.7019660182954  0.9157852988137 1.0
A      1  0.4468926614807  0.8033259858161  0.0817071210439 1.0
A      1  0.5578730637664  0.8027742664765  0.2475823861360 1.0
A      1  0.4481279893532  0.7940964841730  0.4156716811119 1.0
A      1  0.5559882868105  0.7916997206579  0.5816262153860 1.0
A      1  0.4464075331447  0.8031840151719  0.7508886024038 1.0
A      1  0.5577529102994  0.8016701648525  0.9161418668655 1.0
A      1  0.2801519400416  0.9023840373112  0.0829896736821 1.0
A      1  0.3913923575415  0.9025269858832  0.2499985076033 1.0
A      1  0.2809232547169  0.9011399551520  0.4164525701374 1.0
A      1  0.3908603070719  0.9002750114482  0.5819649694027 1.0
A      1  0.2795913034760  0.9017354665361  0.7492637671596 1.0
A      1  0.3905497629092  0.9024767272397  0.9163991755775 1.0
A      1  0.1135309939454  0.0020714052529  0.0826720480173 1.0
A      1  0.2243975497720  0.0015754400978  0.2494874305294 1.0
A      1  0.1132591320490  0.0015722045504  0.4161404397715 1.0
A      1  0.2229577557815  0.0009085444209  0.5829495740386 1.0
A      1  0.1129229460112  0.0018254198725  0.7494383158607 1.0
A      1  0.2239838614239  0.0020595383347  0.9158694402638 1.0
A      1  0.7802121428642  0.8027671026065  0.0814698551671 1.0
A      1  0.8919154035733  0.8025905444603  0.2482562380779 1.0
A      1  0.7842728774310  0.8045297822517  0.4148973829449 1.0
A      1  0.8905499208299  0.8019330669086  0.5827204982796 1.0
A      1  0.7796463215360  0.8013852966933  0.7488847442258 1.0
A      1  0.8906145411826  0.8022489059347  0.9156458637158 1.0
A      1  0.6136493442816  0.9022286092501  0.0819853253760 1.0
A      1  0.7243706258735  0.9016861667837  0.2489554585632 1.0
A      1  0.6129551954491  0.9017896603908  0.4155438123408 1.0
A      1  0.7233424540797  0.8994478072686  0.5819752571754 1.0
A      1  0.6129755936732  0.9002295590185  0.7487839496037 1.0
A      1  0.7240555051974  0.9019217452949  0.9153994938273 1.0
A      1  0.4468397122726  0.0023482966610  0.0830837327315 1.0
A      1  0.5578224774518  0.0020375718459  0.2484883979121 1.0
A      1  0.4471420544479  0.0005827705588  0.4156807672797 1.0
A      1  0.5576907523801  0.9955691863091  0.5826419763308 1.0
A      1  0.4464795437514  0.0011986109770  0.7498044646507 1.0
A      1  0.5575995362030  0.0015574129262  0.9158830972403 1.0
A      1  0.7799675872345  0.0018639067233  0.0824837614130 1.0
A      1  0.8906116533338  0.0018255554256  0.2491845706681 1.0
A      1  0.7795133788557  0.0019681762075  0.4157454482336 1.0
A      1  0.8896017270252  0.0011395588692  0.5827067430937 1.0
A      1  0.7792868941013  0.0007817895819  0.7492071498407 1.0
A      1  0.8904994502173  0.0018983960481  0.9159694808427 1.0
END
