TITL AB-20764-5019-311 0.0000000000 4458.8459578500 -1490.3391588846 0 0  183 (P1) n - 1
REM
REM Run started: at Fri Oct 6 15:30:56 BST 2023 in /home/michal/install/eddp/airss/examples/1.11
REM pp3 from code version ## 0.9.3 July 2022 commit b0220bf5cbf550a3b7
REM
REM
REM
REM Total runtime: s
REM
REM
REM ./AB.cell (a186c3e4acc5915692489c59fabd1559)
REM ## AIRSS Version 0.9.3 July 2022 commit b0220bf5cbf550a3b7
REM compiler GCC version 11.4.0
REM options -cpp -imultiarch x86_64-linux-gnu -mtune=generic -march=x86-64 -g -Og -fpre-include=/usr/include/finclude/math-vector-fortran.h
REM cmdline: airss.pl -pp3 max 100 -seed AB 
REM seed 222252411 -611080073 -807288236 1688886170 -1312975412 459106026 1383254710 1577117698
REM
REM AB.pp (46f9ffe235eb1beff4ce53cde2d82919)
REM 
CELL 1.54180   16.99142   16.35000   16.05000   90.00000   90.00000   90.00000
LATT -1
SFAC A  B  
A      1  0.9432709031181  0.0991543020712  0.0825664085047 1.0
A      1  0.0538742945677  0.0999403279880  0.2491853853164 1.0
A      1  0.3917835984809  0.4796959489725  0.5558235995529 1.0
A      1  0.5571331473460  0.3919698635778  0.5950842714445 1.0
A      1  0.4303091211423  0.6149285508655  0.4117610609112 1.0
A      1  0.5286997884355  0.4605787876884  0.4192337291023 1.0
A      1  0.5399184337365  0.5961602965516  0.5724871364926 1.0
B      2  0.6496006781762  0.5438833374058  0.3853632381161 1.0
B      2  0.3927979758377  0.3936214201013  0.3942878420056 1.0
B      2  0.3418284460185  0.5861147799911  0.6560615158068 1.0
B      2  0.6598761567599  0.5971740816592  0.6639363652913 1.0
A      1  0.9431233840960  0.0996668888276  0.4157966984825 1.0
A      1  0.0533667962283  0.0998406108329  0.5830281656335 1.0
A      1  0.9428949621583  0.0993561023056  0.7496546284379 1.0
A      1  0.0537996950175  0.0991973733047  0.9163656711812 1.0
A      1  0.2762462835495  0.0997315957058  0.0832949706933 1.0
A      1  0.3870572976713  0.1010366258646  0.2499839567087 1.0
A      1  0.2762118712880  0.1011998240313  0.4167590779462 1.0
A      1  0.3868044643377  0.0992508997226  0.5832968329240 1.0
A      1  0.2759549824033  0.0992095996505  0.7499322874967 1.0
A      1  0.3866991204786  0.0994682730976  0.9170069216374 1.0
A      1  0.1096183388261  0.1995187378365  0.0830307378441 1.0
A      1  0.2203642963104  0.2000362558090  0.2500721589261 1.0
A      1  0.1080883811768  0.1995588250658  0.4162785863112 1.0
A      1  0.2187057450819  0.1992534184801  0.5838471939846 1.0
A      1  0.1084349044533  0.1989324249428  0.7499927227538 1.0
A      1  0.2200506343326  0.1987631096318  0.9169060394819 1.0
A      1  0.9431991023788  0.2989983770752  0.0822217326488 1.0
A      1  0.0541824594639  0.2995868442388  0.2494522635887 1.0
A      1  0.9422795458761  0.2995588162156  0.4155401664493 1.0
A      1  0.0532435089344  0.2998191261958  0.5827230369408 1.0
A      1  0.9417047022578  0.2994093415911  0.7488846411971 1.0
A      1  0.0535461429598  0.2989894066480  0.9163199922293 1.0
A      1  0.6100594024460  0.0983547691965  0.0833823800156 1.0
A      1  0.7209237941594  0.0986945950417  0.2492797080094 1.0
A      1  0.6100043227707  0.0979258735652  0.4163401412525 1.0
A      1  0.7210318586881  0.0991437359747  0.5830489238195 1.0
A      1  0.6099264423849  0.0983712631560  0.7502315961733 1.0
A      1  0.7206477396815  0.0992664196197  0.9162406181137 1.0
A      1  0.4429991099768  0.1999879220122  0.0837793148782 1.0
A      1  0.5543110232934  0.1973483892740  0.2493982329224 1.0
A      1  0.4430625275244  0.2051828073030  0.4162945130400 1.0
A      1  0.5543478460157  0.1962881915533  0.5838900772450 1.0
A      1  0.4427743733131  0.1993147445121  0.7509937329369 1.0
A      1  0.5533443033341  0.1974322211498  0.9177781970479 1.0
A      1  0.2763396793874  0.2989871800812  0.0842053543973 1.0
A      1  0.3874155128857  0.3005315596979  0.2516251469107 1.0
A      1  0.2717404219666  0.2990058395792  0.4182787859607 1.0
A      1  0.3862537856689  0.2931238368341  0.5838749800361 1.0
A      1  0.2745754339158  0.2973594093430  0.7504517750680 1.0
A      1  0.3863716212485  0.2991086592727  0.9167851923756 1.0
A      1  0.1093810684636  0.3993665729409  0.0833453348589 1.0
A      1  0.2205329198164  0.3994270972183  0.2492999689626 1.0
A      1  0.1075991405783  0.3998523361864  0.4162829403419 1.0
A      1  0.2197699529216  0.4006893040656  0.5842064901494 1.0
A      1  0.1074919789492  0.3978861549749  0.7499116833907 1.0
A      1  0.2199359667324  0.3977353613134  0.9195230666752 1.0
A      1  0.9434051476609  0.4990827093373  0.0822813708143 1.0
A      1  0.0547683583448  0.4998631137206  0.2487601728139 1.0
A      1  0.9425543214575  0.4993336840481  0.4154029209127 1.0
A      1  0.0519959680253  0.4995489565885  0.5824267947009 1.0
A      1  0.9437002279937  0.4990707289724  0.7495724394600 1.0
A      1  0.0549354710833  0.4992312968224  0.9159242215566 1.0
A      1  0.7771797134639  0.1981668936079  0.0820318013556 1.0
A      1  0.8880272717278  0.1992201742660  0.2488005790651 1.0
A      1  0.7779848199660  0.1980382626259  0.4155476463791 1.0
A      1  0.8878766698176  0.1992506173576  0.5826243452633 1.0
A      1  0.7768422708375  0.1989206620766  0.7497002079371 1.0
A      1  0.8875642461757  0.1991523371123  0.9158957064065 1.0
A      1  0.6110999432749  0.2968211208019  0.0813294807787 1.0
A      1  0.7221402370575  0.2971639411961  0.2473559788818 1.0
A      1  0.6134880907315  0.2933808095743  0.4164092495354 1.0
A      1  0.7221622545863  0.2967180032190  0.5827738837096 1.0
A      1  0.6101103640584  0.2944165105102  0.7542903262430 1.0
A      1  0.7216268466989  0.2994903939922  0.9159301574815 1.0
A      1  0.4418621210976  0.3993935515296  0.0839800758183 1.0
A      1  0.5568827499424  0.3943000445270  0.2427231499779 1.0
A      1  0.4382565943221  0.4005908959332  0.7490728593606 1.0
A      1  0.5521871918833  0.3966412971046  0.9204991304534 1.0
A      1  0.2766410440507  0.4997983975318  0.0843654050112 1.0
A      1  0.3892823691474  0.4980612337052  0.2541093733436 1.0
A      1  0.2700752225929  0.5017745776903  0.4117667774288 1.0
A      1  0.2709073687023  0.4938984776790  0.7565478464575 1.0
A      1  0.3877603877550  0.4999339254085  0.9179027133218 1.0
A      1  0.1094138992056  0.5996647844658  0.0824268715775 1.0
A      1  0.2208539242313  0.6013033225249  0.2477727140056 1.0
A      1  0.1059111057266  0.6009693939233  0.4135832150822 1.0
A      1  0.2140424597601  0.6011076000152  0.5767697586008 1.0
A      1  0.1098304489805  0.5995397371906  0.7486420395589 1.0
A      1  0.2208452214694  0.5996679466301  0.9172303491532 1.0
A      1  0.9434579548449  0.7000930513252  0.0825554069324 1.0
A      1  0.0545026742080  0.7010639178118  0.2483524821359 1.0
A      1  0.9443193793610  0.7024515781265  0.4158344407622 1.0
A      1  0.0522115885219  0.7008377364459  0.5824871217806 1.0
A      1  0.9442212095301  0.7002935013926  0.7497829903944 1.0
A      1  0.0548819110039  0.6996722576711  0.9158616466225 1.0
A      1  0.7770940809185  0.3984229586292  0.0823822527977 1.0
A      1  0.8888351047624  0.3993786495399  0.2479261956777 1.0
A      1  0.7754314513944  0.3986137958396  0.4097498399887 1.0
A      1  0.8861501619704  0.3995859930768  0.5810846092936 1.0
A      1  0.7753081683922  0.4007517298872  0.7465465866012 1.0
A      1  0.8877169666783  0.3994028953139  0.9151637308291 1.0
A      1  0.6103153428244  0.4989726322407  0.0837717362405 1.0
A      1  0.7225204913616  0.4987826196088  0.2472947722336 1.0
A      1  0.7172645637202  0.4941138485928  0.5654468553745 1.0
A      1  0.6075018783074  0.4901945383278  0.7604794226045 1.0
A      1  0.7222598933490  0.4989384079425  0.9184350735345 1.0
A      1  0.4431214756031  0.5993398882398  0.0856697744455 1.0
A      1  0.5542127437376  0.5961524385363  0.2544155234708 1.0
A      1  0.4534938536376  0.6014674872558  0.7567289418353 1.0
A      1  0.5564292396124  0.5997601418061  0.9216848583700 1.0
A      1  0.2757191957697  0.7004320062949  0.0817376328674 1.0
A      1  0.3854069441880  0.7032006973545  0.2460300776281 1.0
A      1  0.2693786486787  0.7050616007038  0.4140838804523 1.0
A      1  0.3857443926387  0.7116017289173  0.5778344407949 1.0
A      1  0.2764599327319  0.6994688981427  0.7500189517940 1.0
A      1  0.3879741484406  0.6997997720302  0.9174661634871 1.0
A      1  0.1095491087606  0.8001459269330  0.0819774623891 1.0
A      1  0.2195574885695  0.8023039457570  0.2480811500695 1.0
A      1  0.1077277718563  0.8025845881692  0.4157999670846 1.0
A      1  0.2185912885935  0.8017544618144  0.5831603794561 1.0
A      1  0.1097333806509  0.7998498899946  0.7494433508377 1.0
A      1  0.2209385419841  0.7998870040086  0.9157138551353 1.0
A      1  0.9430726163500  0.8996774300232  0.0825097710593 1.0
A      1  0.0535321020978  0.9008230051575  0.2489010342981 1.0
A      1  0.9428710615682  0.9014144884754  0.4157347859185 1.0
A      1  0.0535515803229  0.9009685321855  0.5829496020191 1.0
A      1  0.9432505117288  0.8999298033421  0.7496592736634 1.0
A      1  0.0540737339643  0.8995988026156  0.9159904157422 1.0
A      1  0.7771150485246  0.5995931161753  0.0834646883908 1.0
A      1  0.8893187529534  0.5999892579567  0.2482081566747 1.0
A      1  0.7844113324200  0.6048277551138  0.4149479266515 1.0
A      1  0.8858403086433  0.5995276229149  0.5842573789387 1.0
A      1  0.7814116739604  0.6000394154373  0.7550490153159 1.0
A      1  0.8895416803291  0.5995834350318  0.9179218874820 1.0
A      1  0.6097016144240  0.6992095497418  0.0861283801065 1.0
A      1  0.7207454058389  0.6988728995781  0.2505582083345 1.0
A      1  0.6084738326116  0.6994603274280  0.4168678347150 1.0
A      1  0.7244305607615  0.7062541149793  0.5772772801650 1.0
A      1  0.6097232067398  0.7082863516863  0.7576809410821 1.0
A      1  0.7219686433215  0.6998996176682  0.9189728834416 1.0
A      1  0.4427988314572  0.8007165629671  0.0831287220716 1.0
A      1  0.5536539690785  0.7987554066283  0.2502254691098 1.0
A      1  0.4428254092431  0.8073053166690  0.4144378461205 1.0
A      1  0.5551123715813  0.7988953192247  0.5842507546949 1.0
A      1  0.4421037796336  0.8011671521209  0.7500141442081 1.0
A      1  0.5534158168145  0.8009616425570  0.9198805527175 1.0
A      1  0.2761670482920  0.9003270770123  0.0824051464086 1.0
A      1  0.3865276901188  0.9020312539417  0.2488342659594 1.0
A      1  0.2756441186801  0.9024157984694  0.4162316112446 1.0
A      1  0.3869092914644  0.9040049474007  0.5830219374134 1.0
A      1  0.2760214571653  0.8999659330446  0.7494117997694 1.0
A      1  0.3869419265886  0.9000533594313  0.9164748909709 1.0
A      1  0.1097012399241  0.9997742049718  0.0826763914430 1.0
A      1  0.2202679930526  0.0010833589128  0.2495291397864 1.0
A      1  0.1094672513043  0.0009576932717  0.4160526732372 1.0
A      1  0.2197020231564  0.0006978701403  0.5830555121339 1.0
A      1  0.1094696885024  0.9996381807751  0.7496905836012 1.0
A      1  0.2203786908080  0.9995321273023  0.9162317589568 1.0
A      1  0.7765446176187  0.7995367292639  0.0836662074629 1.0
A      1  0.8876361619085  0.7999276164319  0.2489938082366 1.0
A      1  0.7771334458481  0.8025998065979  0.4140757039932 1.0
A      1  0.8884903575459  0.8014483846674  0.5824714315827 1.0
A      1  0.7772671465289  0.7999651502131  0.7492765170001 1.0
A      1  0.8877690589939  0.7996164721430  0.9162105695502 1.0
A      1  0.6098812057370  0.8994407825314  0.0839857079436 1.0
A      1  0.7204298910628  0.8995304830863  0.2492066596612 1.0
A      1  0.6102075467708  0.8996430725437  0.4166993638105 1.0
A      1  0.7210623994616  0.9016305303238  0.5831566287592 1.0
A      1  0.6097007782980  0.9019655702669  0.7503957154703 1.0
A      1  0.7207315936753  0.8992559431640  0.9164340998721 1.0
A      1  0.4430225941814  0.0003169032213  0.0831451175526 1.0
A      1  0.5537396233160  0.9986443701068  0.2499333782048 1.0
A      1  0.4429776633517  0.0038222018386  0.4160207665848 1.0
A      1  0.5539760935478  0.9987022229819  0.5831000006491 1.0
A      1  0.4428107422658  0.0003918640299  0.7504766690913 1.0
A      1  0.5538121650338  0.9992988260743  0.9171872941146 1.0
A      1  0.7765657619583  0.9990044311794  0.0826049071087 1.0
A      1  0.8871542767702  0.9997068522659  0.2490561543876 1.0
A      1  0.7765918198855  0.0000796970530  0.4159450946488 1.0
A      1  0.8873904943399  0.0002866200370  0.5828731547117 1.0
A      1  0.7768625858667  0.9995643311101  0.7499736841847 1.0
A      1  0.8873452151569  0.9993995012918  0.9162218745833 1.0
END
