TITL AB-20764-5019-566 0.0000000000 4458.8459578500 -1496.1010912275 0 0  183 (P1) n - 1
REM
REM Run started: at Fri Oct 6 15:40:23 BST 2023 in /home/michal/install/eddp/airss/examples/1.11
REM pp3 from code version ## 0.9.3 July 2022 commit b0220bf5cbf550a3b7
REM
REM
REM
REM Total runtime: s
REM
REM
REM ./AB.cell (a186c3e4acc5915692489c59fabd1559)
REM ## AIRSS Version 0.9.3 July 2022 commit b0220bf5cbf550a3b7
REM compiler GCC version 11.4.0
REM options -cpp -imultiarch x86_64-linux-gnu -mtune=generic -march=x86-64 -g -Og -fpre-include=/usr/include/finclude/math-vector-fortran.h
REM cmdline: airss.pl -pp3 max 100 -seed AB 
REM seed 1610014981 944636688 -1922032708 25020852 701303542 -1727664735 1221221815 483547705
REM
REM AB.pp (46f9ffe235eb1beff4ce53cde2d82919)
REM 
CELL 1.54180   16.99142   16.35000   16.05000   90.00000   90.00000   90.00000
LATT -1
SFAC A  B  
A      1  0.9433003638658  0.0993911857421  0.0829682443706 1.0
A      1  0.0543371319662  0.0994000443887  0.2496520765182 1.0
A      1  0.3814294643810  0.4880476106867  0.5630892899274 1.0
A      1  0.5643721378214  0.5989805445866  0.5642912351999 1.0
A      1  0.4468738112233  0.3970924259667  0.4092149270658 1.0
A      1  0.4407528534330  0.6011295511103  0.4110887182409 1.0
A      1  0.5569991594437  0.3956624130674  0.5781856611553 1.0
B      2  0.6440573528989  0.4658834067633  0.4561997930395 1.0
B      2  0.3405012474969  0.5940819136116  0.6666028668858 1.0
B      2  0.4917804303262  0.5086683037863  0.6645380291523 1.0
B      2  0.5626334182089  0.5073782083776  0.3735293417200 1.0
A      1  0.9439575110994  0.0990097352457  0.4161451695460 1.0
A      1  0.0546642123127  0.0986488544024  0.5827991073302 1.0
A      1  0.9431641938147  0.0989927484317  0.7496567552496 1.0
A      1  0.0537717176331  0.0989981161742  0.9165063141353 1.0
A      1  0.2766458342837  0.0993915395661  0.0830865756926 1.0
A      1  0.3877048623034  0.0999612862532  0.2491546730422 1.0
A      1  0.2772420671923  0.0996043928034  0.4160444281089 1.0
A      1  0.3881220438316  0.0988296826815  0.5823531107866 1.0
A      1  0.2766256162544  0.0985264078440  0.7493299425239 1.0
A      1  0.3874665866639  0.0993942725287  0.9160991056888 1.0
A      1  0.1097336764587  0.1991743819431  0.0833019830337 1.0
A      1  0.2208134842683  0.1992634690732  0.2499177670163 1.0
A      1  0.1106126820420  0.1991378264646  0.4162188890166 1.0
A      1  0.2209295076672  0.1981771981778  0.5825153376348 1.0
A      1  0.1093055811537  0.1980430729404  0.7497536022624 1.0
A      1  0.2202237445854  0.1981360355400  0.9167193230122 1.0
A      1  0.9429055581306  0.2990995044718  0.0834804873862 1.0
A      1  0.0539690022927  0.2990306390388  0.2496736124941 1.0
A      1  0.9440785277153  0.2983776154543  0.4163807495369 1.0
A      1  0.0540455419700  0.2977813126455  0.5830928693401 1.0
A      1  0.9430767966681  0.2981286529795  0.7502260473130 1.0
A      1  0.0538173881253  0.2982791504038  0.9169299513943 1.0
A      1  0.6101842630539  0.0998531042434  0.0821806823515 1.0
A      1  0.7212889077592  0.0994412536018  0.2490506228875 1.0
A      1  0.6108632817133  0.1002696141863  0.4154699835135 1.0
A      1  0.7218490034301  0.0991418916811  0.5825139416119 1.0
A      1  0.6105298170894  0.0996170998999  0.7490407293503 1.0
A      1  0.7208869260219  0.0993651782383  0.9159771225717 1.0
A      1  0.4435973288868  0.1992617314814  0.0826628442463 1.0
A      1  0.5545994797405  0.1997822743394  0.2489841386689 1.0
A      1  0.4443206219907  0.1993927487458  0.4155163748192 1.0
A      1  0.5554758671892  0.1984502051794  0.5820331262633 1.0
A      1  0.4435856349350  0.1977116978093  0.7495839013505 1.0
A      1  0.5542704135233  0.1996124399987  0.9155674932761 1.0
A      1  0.2761477650263  0.2986623491199  0.0833588777525 1.0
A      1  0.3871066370595  0.2988797066022  0.2479717451811 1.0
A      1  0.2774867135217  0.3002834576096  0.4162986606001 1.0
A      1  0.3881985252723  0.2961156652652  0.5830552427964 1.0
A      1  0.2749118105058  0.2956578387088  0.7500103022235 1.0
A      1  0.3865521379817  0.2979943376838  0.9178834915687 1.0
A      1  0.1087004206178  0.3991680806653  0.0832873872183 1.0
A      1  0.2199935632909  0.3984700101206  0.2478649541942 1.0
A      1  0.1088564641959  0.3988294835734  0.4160717859533 1.0
A      1  0.2182452217936  0.3973521119958  0.5835364563420 1.0
A      1  0.1075814877228  0.3972564401660  0.7503401826612 1.0
A      1  0.2197129643744  0.3969508660860  0.9191604906027 1.0
A      1  0.9428022406620  0.4994467590984  0.0835237903078 1.0
A      1  0.0536878373847  0.4992404207456  0.2495183309585 1.0
A      1  0.9424304952642  0.4992217382500  0.4166970900746 1.0
A      1  0.0534204991068  0.4984630345605  0.5829673773743 1.0
A      1  0.9436757428753  0.4992498295678  0.7503465808720 1.0
A      1  0.0549146856022  0.4991533958140  0.9163180137961 1.0
A      1  0.7767694535694  0.1993511181588  0.0827305033491 1.0
A      1  0.8878681451435  0.1991426554822  0.2496334280541 1.0
A      1  0.7774673212409  0.1986585063487  0.4160475168854 1.0
A      1  0.8881164793565  0.1985478520232  0.5830106685026 1.0
A      1  0.7764968525401  0.1990275997156  0.7497140761393 1.0
A      1  0.8873463290979  0.1990055343839  0.9164606015646 1.0
A      1  0.6101842389369  0.2990295878505  0.0822409134898 1.0
A      1  0.7217681210761  0.2988981544639  0.2490398944786 1.0
A      1  0.6124435828140  0.3012161862077  0.4139173395949 1.0
A      1  0.7225457484829  0.2987402857120  0.5831317252044 1.0
A      1  0.6097331784882  0.3002091732540  0.7489072098368 1.0
A      1  0.7210549095554  0.2993284460095  0.9166710029430 1.0
A      1  0.4430646805935  0.3992982698824  0.0825780618062 1.0
A      1  0.5547833602921  0.3990530773750  0.2468163983411 1.0
A      1  0.4394205239902  0.3940194381571  0.7540566135950 1.0
A      1  0.5543875576494  0.3995641452803  0.9170066092094 1.0
A      1  0.2755644352079  0.4994279120941  0.0830754201536 1.0
A      1  0.3874503661097  0.4997931216845  0.2473037978436 1.0
A      1  0.2720363204996  0.4994386158324  0.4089995888531 1.0
A      1  0.2719940731609  0.4912231351149  0.7561883146328 1.0
A      1  0.3872684258799  0.4992489755789  0.9187243534215 1.0
A      1  0.1087693388986  0.5994085220748  0.0827524335448 1.0
A      1  0.2196493292400  0.6005229582770  0.2478765491130 1.0
A      1  0.1072518080048  0.5997908754302  0.4144809518717 1.0
A      1  0.2164074363510  0.5984693882612  0.5776592139165 1.0
A      1  0.1109459488789  0.5990493228139  0.7489590870123 1.0
A      1  0.2210157884116  0.5996437739675  0.9173631494718 1.0
A      1  0.9426839596522  0.6994265007602  0.0833576815267 1.0
A      1  0.0532293029406  0.6997669041103  0.2494513066859 1.0
A      1  0.9413167638433  0.6989348105922  0.4162526549494 1.0
A      1  0.0540643592614  0.6998377318058  0.5826436985349 1.0
A      1  0.9443533277525  0.6995844389730  0.7498223599347 1.0
A      1  0.0547686664207  0.6994981837382  0.9162281100616 1.0
A      1  0.7765773226638  0.3995149806071  0.0846440271344 1.0
A      1  0.8874113597860  0.3993991868483  0.2499634386983 1.0
A      1  0.7796335359081  0.3973267483032  0.4171059267400 1.0
A      1  0.8891746302814  0.3981728212694  0.5839675208070 1.0
A      1  0.7785529392118  0.3979189971015  0.7519954976143 1.0
A      1  0.8887161103401  0.3989277225740  0.9174891440087 1.0
A      1  0.6107341493737  0.4989735208147  0.0841827828953 1.0
A      1  0.7173870759209  0.4991589909560  0.2546707709832 1.0
A      1  0.7257964316463  0.4985651409899  0.5897020565570 1.0
A      1  0.6152890457001  0.4997541581148  0.7548515909953 1.0
A      1  0.7237224901029  0.4989497528562  0.9187312571020 1.0
A      1  0.4424394517035  0.6003169224746  0.0824824603214 1.0
A      1  0.5532846620059  0.6032988961206  0.2440770767619 1.0
A      1  0.4491706084225  0.6113626594870  0.7700661277270 1.0
A      1  0.5591441611550  0.5994911733715  0.9227562738227 1.0
A      1  0.2747215823905  0.7002818917247  0.0841633642825 1.0
A      1  0.3864949242947  0.7013992464356  0.2477976056758 1.0
A      1  0.2759123590515  0.6999249741808  0.4149798687028 1.0
A      1  0.3950954823011  0.7048125544438  0.5758128551689 1.0
A      1  0.2747382554094  0.7042160505811  0.7545647160331 1.0
A      1  0.3850448537141  0.7042536493939  0.9229500159762 1.0
A      1  0.1088831327931  0.7997367038822  0.0834348207292 1.0
A      1  0.2200774731133  0.8005866003761  0.2497475381622 1.0
A      1  0.1096147075804  0.7992593016977  0.4164684870567 1.0
A      1  0.2228462481741  0.7981627315157  0.5833684145305 1.0
A      1  0.1094333749968  0.8001477739673  0.7495667501832 1.0
A      1  0.2193156261763  0.8015772832687  0.9179793313049 1.0
A      1  0.9432069973543  0.8997609894645  0.0829186341903 1.0
A      1  0.0541230459306  0.8998299474142  0.2497609795996 1.0
A      1  0.9435670498906  0.8992305311562  0.4161417244364 1.0
A      1  0.0553699871436  0.8992507097665  0.5827717219882 1.0
A      1  0.9435882835437  0.8997393085344  0.7494652754707 1.0
A      1  0.0537738521660  0.8998485070455  0.9164046692896 1.0
A      1  0.7762619271576  0.5993136915415  0.0842225167808 1.0
A      1  0.8862975915179  0.5987762536621  0.2508612985984 1.0
A      1  0.7717996835466  0.5960836095526  0.4187666628418 1.0
A      1  0.8889754701634  0.5994733371623  0.5832796748889 1.0
A      1  0.7792835191246  0.6004669718723  0.7516177983216 1.0
A      1  0.8889371637521  0.5995104766149  0.9173762005845 1.0
A      1  0.6110418874148  0.7020853553911  0.0824579052938 1.0
A      1  0.7222064773360  0.7000040815281  0.2482301190497 1.0
A      1  0.6103575589112  0.7011955499487  0.4086924928869 1.0
A      1  0.7244810567685  0.7006246163054  0.5823634539570 1.0
A      1  0.6129302650164  0.6995395921815  0.7464221086744 1.0
A      1  0.7224433868551  0.7000076117633  0.9161205426029 1.0
A      1  0.4438319549921  0.8014280463467  0.0834378421384 1.0
A      1  0.5545629443491  0.8022264428923  0.2470796574224 1.0
A      1  0.4445876746497  0.8019736926548  0.4124050196661 1.0
A      1  0.5581312770167  0.8002689263036  0.5802630656965 1.0
A      1  0.4436098123443  0.8029586568750  0.7478774771552 1.0
A      1  0.5541903097038  0.7989191099511  0.9143790424989 1.0
A      1  0.2765236077514  0.8999180622038  0.0830648591786 1.0
A      1  0.3871115583326  0.9011417306033  0.2487461436815 1.0
A      1  0.2769029192489  0.8995417265404  0.4161080404070 1.0
A      1  0.3887918203405  0.9009719127466  0.5815167075440 1.0
A      1  0.2766001698216  0.9008375755503  0.7494723606185 1.0
A      1  0.3874925933503  0.9009588379465  0.9159166344615 1.0
A      1  0.1098938614837  0.9994580108696  0.0830695338616 1.0
A      1  0.2208015507797  0.9999678628319  0.2496476403370 1.0
A      1  0.1103809541077  0.9992939989153  0.4161323147606 1.0
A      1  0.2213452593126  0.9988297797070  0.5825426750202 1.0
A      1  0.1098770266803  0.9993139906973  0.7496409117033 1.0
A      1  0.2205610459642  0.9998330884460  0.9164471841730 1.0
A      1  0.7771943372653  0.8002352770269  0.0822923667363 1.0
A      1  0.8878294105149  0.7997955654209  0.2493641090761 1.0
A      1  0.7768006099634  0.7992697039221  0.4155238365078 1.0
A      1  0.8889896693817  0.8000114395622  0.5828573433524 1.0
A      1  0.7779240610487  0.8002127282331  0.7493730430465 1.0
A      1  0.8883301594756  0.7995423905383  0.9161632683154 1.0
A      1  0.6104438131421  0.9007857452051  0.0812924309451 1.0
A      1  0.7214258813638  0.8998685638210  0.2486545391398 1.0
A      1  0.6110867828565  0.9009153419492  0.4148221917532 1.0
A      1  0.7226417560837  0.9000769598030  0.5822319660208 1.0
A      1  0.6109127694263  0.8997184522861  0.7485704948571 1.0
A      1  0.7211431717700  0.8994889508282  0.9155622484598 1.0
A      1  0.4435214164295  0.0002190524142  0.0823760862679 1.0
A      1  0.5545635608604  0.0005356553616  0.2486176413640 1.0
A      1  0.4440848458806  0.0004365614775  0.4152792998468 1.0
A      1  0.5553874602837  0.9995422775845  0.5820882295476 1.0
A      1  0.4439634356016  0.0000941603288  0.7489477931568 1.0
A      1  0.5544323729014  0.9995550038187  0.9152833982131 1.0
A      1  0.7768435854374  0.9998438768670  0.0824536482643 1.0
A      1  0.8878474221528  0.9995426791403  0.2493849531600 1.0
A      1  0.7774143695845  0.9994371034125  0.4156728617208 1.0
A      1  0.8885375906851  0.9993013165097  0.5826820073304 1.0
A      1  0.7770053155250  0.9996330175795  0.7492811964608 1.0
A      1  0.8874038658639  0.9993434809683  0.9161617959735 1.0
END
