TITL AB-20764-5019-21 0.0000000000 4458.8459578500 -1502.5838791738 0 0  183 (P1) n - 1
REM
REM Run started: at Fri Oct 6 15:19:59 BST 2023 in /home/michal/install/eddp/airss/examples/1.11
REM pp3 from code version ## 0.9.3 July 2022 commit b0220bf5cbf550a3b7
REM
REM
REM
REM Total runtime: s
REM
REM
REM ./AB.cell (a186c3e4acc5915692489c59fabd1559)
REM ## AIRSS Version 0.9.3 July 2022 commit b0220bf5cbf550a3b7
REM compiler GCC version 11.4.0
REM options -cpp -imultiarch x86_64-linux-gnu -mtune=generic -march=x86-64 -g -Og -fpre-include=/usr/include/finclude/math-vector-fortran.h
REM cmdline: airss.pl -pp3 max 100 -seed AB 
REM seed 530972639 -1269114644 1165612949 1789873081 363726997 295838886 2080370222 -1944028389
REM
REM AB.pp (46f9ffe235eb1beff4ce53cde2d82919)
REM 
CELL 1.54180   16.99142   16.35000   16.05000   90.00000   90.00000   90.00000
LATT -1
SFAC A  B  
A      1  0.9464323587700  0.1006684468036  0.0832891785037 1.0
A      1  0.0571109826811  0.1006265491701  0.2497180369581 1.0
A      1  0.5545316766640  0.5998948495599  0.5842851897349 1.0
A      1  0.5659762967105  0.3983836640678  0.5851099433778 1.0
A      1  0.4046224576874  0.4773225377668  0.5418330226669 1.0
A      1  0.6202199686078  0.5042924607122  0.4204923874579 1.0
A      1  0.4462870485136  0.6117581598608  0.4118976350546 1.0
B      2  0.4731397771168  0.3545734331005  0.4567316115611 1.0
B      2  0.3494614584096  0.5753239872262  0.6487035261700 1.0
B      2  0.4822817970856  0.4600243450889  0.3802200912885 1.0
B      2  0.3797778490380  0.3979284381353  0.3807592235781 1.0
A      1  0.9457052135190  0.1002430623062  0.4165654602946 1.0
A      1  0.0568353325312  0.0998896259043  0.5837548439850 1.0
A      1  0.9464102776606  0.1000861689172  0.7503630077954 1.0
A      1  0.0575216952687  0.1001188394018  0.9169674054223 1.0
A      1  0.2797863288795  0.1005809230915  0.0831938537106 1.0
A      1  0.3905083369085  0.1011536737820  0.2492424331190 1.0
A      1  0.2789430080378  0.0997920316641  0.4169621636257 1.0
A      1  0.3906820583959  0.0989303802535  0.5833383613002 1.0
A      1  0.2801609360689  0.0997082944407  0.7502573704492 1.0
A      1  0.3910219623217  0.1009774311593  0.9166342855282 1.0
A      1  0.1131955107223  0.2006077482858  0.0836522645501 1.0
A      1  0.2238925312429  0.2004764783829  0.2503988381068 1.0
A      1  0.1106628357341  0.1991059063271  0.4169472723779 1.0
A      1  0.2222459318925  0.1988512120144  0.5851736240510 1.0
A      1  0.1125242602357  0.1995628376234  0.7509542762144 1.0
A      1  0.2242565309390  0.1998774617930  0.9172088785442 1.0
A      1  0.9464948380517  0.3005182033269  0.0836967724657 1.0
A      1  0.0576707017049  0.3005745913527  0.2505218401612 1.0
A      1  0.9462211147608  0.3004203595679  0.4169907077807 1.0
A      1  0.0585497029414  0.3005387386677  0.5835907974612 1.0
A      1  0.9462058615946  0.2999194263936  0.7502395828565 1.0
A      1  0.0571985577375  0.2999248485736  0.9173334684079 1.0
A      1  0.6132757692770  0.1009088005070  0.0831593986259 1.0
A      1  0.7242377811713  0.1008800642779  0.2497950849779 1.0
A      1  0.6131463815328  0.1017927453284  0.4162440997969 1.0
A      1  0.7245373770959  0.1005541102045  0.5832378524993 1.0
A      1  0.6133954044769  0.1007691842267  0.7498054101721 1.0
A      1  0.7243001839039  0.1006407078832  0.9166592123738 1.0
A      1  0.4465454870865  0.2011263089163  0.0828976994774 1.0
A      1  0.5578015749827  0.2007029749834  0.2495602895890 1.0
A      1  0.4450478136015  0.2009099712921  0.4152679631739 1.0
A      1  0.5580182159330  0.2006087542682  0.5824350944516 1.0
A      1  0.4471097971989  0.2006969699120  0.7507443845900 1.0
A      1  0.5577651334459  0.2007125580807  0.9169704049011 1.0
A      1  0.2801865658304  0.3002811055347  0.0841342067700 1.0
A      1  0.3913150528984  0.3006075415884  0.2502096760948 1.0
A      1  0.2732945212403  0.2963250773150  0.4203586829959 1.0
A      1  0.3891653534221  0.2928658280247  0.5848515988753 1.0
A      1  0.2789906044824  0.2988743031995  0.7509021947845 1.0
A      1  0.3911123672079  0.3016461007386  0.9155921973690 1.0
A      1  0.1128434027896  0.4005297305846  0.0844231233111 1.0
A      1  0.2247365998803  0.4001284822694  0.2508230274998 1.0
A      1  0.1113739684606  0.4007964231897  0.4172789886594 1.0
A      1  0.2270777529787  0.4034429261635  0.5843363258811 1.0
A      1  0.1115018594486  0.3990229146735  0.7502772343484 1.0
A      1  0.2231238314327  0.3987225783168  0.9198400002138 1.0
A      1  0.9464782597885  0.5006468161165  0.0833533935046 1.0
A      1  0.0578753268296  0.5008365113978  0.2498229720781 1.0
A      1  0.9459879185741  0.5009787412688  0.4166676161705 1.0
A      1  0.0570864848218  0.5004072257569  0.5832380519598 1.0
A      1  0.9464743508264  0.5005789649950  0.7502996609726 1.0
A      1  0.0579226639124  0.5002340545885  0.9165651398012 1.0
A      1  0.7798663442377  0.2006899452368  0.0833164212784 1.0
A      1  0.8910286660930  0.2007230636077  0.2500129272918 1.0
A      1  0.7801347924382  0.2005974275963  0.4164621261874 1.0
A      1  0.8918280330350  0.2001296748045  0.5834980406300 1.0
A      1  0.7800212393165  0.2002242117184  0.7503503639621 1.0
A      1  0.8908583427841  0.2003780566295  0.9169081676410 1.0
A      1  0.6132517862465  0.3009608957397  0.0831100254628 1.0
A      1  0.7249625522791  0.3008286611016  0.2497041943347 1.0
A      1  0.6149285988939  0.3018132807303  0.4154907144587 1.0
A      1  0.7271078754373  0.2994498511257  0.5835846549329 1.0
A      1  0.6133196124776  0.3002463015893  0.7509185937792 1.0
A      1  0.7243548167230  0.3007122703003  0.9169846672086 1.0
A      1  0.4465787028742  0.4010073705026  0.0837391352638 1.0
A      1  0.5580885634195  0.4002388211445  0.2504287504501 1.0
A      1  0.4447595606122  0.4042563892298  0.7433932920485 1.0
A      1  0.5570648359641  0.4011268680391  0.9156878657714 1.0
A      1  0.2795815252374  0.5008205911024  0.0837068574335 1.0
A      1  0.3900736654855  0.5025879626334  0.2498444177855 1.0
A      1  0.2712612585398  0.5064528865259  0.4120798165334 1.0
A      1  0.2747529103916  0.4955540639879  0.7576202071736 1.0
A      1  0.3911288599475  0.5007347569923  0.9175652383852 1.0
A      1  0.1124152641410  0.6008101674055  0.0826213007383 1.0
A      1  0.2228972600698  0.6030324306573  0.2473060172109 1.0
A      1  0.1088374181043  0.6031387305635  0.4145001993107 1.0
A      1  0.2180382450873  0.6032100691662  0.5783191710730 1.0
A      1  0.1129285120156  0.6004984970318  0.7493988103783 1.0
A      1  0.2240196845012  0.6010306981578  0.9174603735357 1.0
A      1  0.9462086261167  0.7009862816292  0.0829042351084 1.0
A      1  0.0567898071658  0.7020235321688  0.2486807312265 1.0
A      1  0.9455746435043  0.7023704587507  0.4161569915775 1.0
A      1  0.0557092480983  0.7021641245198  0.5829533345982 1.0
A      1  0.9467270540833  0.7009144846995  0.7502163854895 1.0
A      1  0.0576674729157  0.7005861429962  0.9161838148856 1.0
A      1  0.7801836402208  0.4006687648935  0.0836463999692 1.0
A      1  0.8915020367166  0.4007778280554  0.2501297433872 1.0
A      1  0.7813408949687  0.4006829142427  0.4172598115058 1.0
A      1  0.8921404301918  0.4004008431254  0.5838313127732 1.0
A      1  0.7803776177342  0.4001720132932  0.7505712551595 1.0
A      1  0.8913070158459  0.4003695665555  0.9169387910860 1.0
A      1  0.6135644362468  0.5003265814639  0.0842567345839 1.0
A      1  0.7251305672236  0.5007452917773  0.2506162331605 1.0
A      1  0.7273050415461  0.5016081032388  0.5852156287328 1.0
A      1  0.6152482717488  0.5008337472635  0.7510049848793 1.0
A      1  0.7251199277218  0.5004136628878  0.9174167610786 1.0
A      1  0.4467264694306  0.6011776292863  0.0837044909082 1.0
A      1  0.5582202549759  0.6000909321029  0.2508218457386 1.0
A      1  0.4534657468292  0.6028564442597  0.7574567272550 1.0
A      1  0.5599971699507  0.6009736551781  0.9198022782860 1.0
A      1  0.2795373639561  0.7014446272050  0.0821898050084 1.0
A      1  0.3899510509268  0.7033775772903  0.2472084128526 1.0
A      1  0.2782308840153  0.7038387095877  0.4142759325617 1.0
A      1  0.3923264174137  0.7074488555221  0.5782747933012 1.0
A      1  0.2817114111081  0.6975633876612  0.7477363723787 1.0
A      1  0.3910373865912  0.7013325732308  0.9173937140228 1.0
A      1  0.1130563932505  0.8009343524583  0.0822834494166 1.0
A      1  0.2233190661009  0.8024577239359  0.2486778697500 1.0
A      1  0.1123209245318  0.8018668649272  0.4160654437299 1.0
A      1  0.2237625011147  0.8014689396389  0.5827488097695 1.0
A      1  0.1139194326287  0.8000317128945  0.7494482204740 1.0
A      1  0.2245948432533  0.8003487337665  0.9152182052362 1.0
A      1  0.9464595608043  0.9008625717796  0.0830171709585 1.0
A      1  0.0569010288693  0.9013105471346  0.2494464320241 1.0
A      1  0.9459652286754  0.9012488472183  0.4164859490483 1.0
A      1  0.0569920354066  0.9008167875672  0.5832516995788 1.0
A      1  0.9468539214205  0.9005199796362  0.7499389671037 1.0
A      1  0.0577604913070  0.9003904549796  0.9162303912291 1.0
A      1  0.7798930259290  0.6007901170754  0.0837246361325 1.0
A      1  0.8914566919223  0.6009870294839  0.2497365035391 1.0
A      1  0.7819779783334  0.6024798707102  0.4168622544393 1.0
A      1  0.8916921203255  0.6012220440450  0.5836361213008 1.0
A      1  0.7809320476891  0.6011280846350  0.7509767763512 1.0
A      1  0.8914853366195  0.6005243881428  0.9170311102755 1.0
A      1  0.6135293496803  0.7011610034469  0.0843368580283 1.0
A      1  0.7245165033664  0.7008461704525  0.2503683690044 1.0
A      1  0.6140625051725  0.7027762144221  0.4171057855779 1.0
A      1  0.7240560639552  0.7003756221075  0.5834444329389 1.0
A      1  0.6154273899387  0.7017220207259  0.7501825704270 1.0
A      1  0.7251871298709  0.7009487796834  0.9172613708901 1.0
A      1  0.4469419376313  0.8016449276239  0.0824976095332 1.0
A      1  0.5576364406150  0.8009634211205  0.2496669872421 1.0
A      1  0.4470249181887  0.8061299206705  0.4143682307997 1.0
A      1  0.5585384620280  0.8016176801455  0.5829669918215 1.0
A      1  0.4470629156942  0.8009412411403  0.7493043584196 1.0
A      1  0.5580269822324  0.8006079079185  0.9164002227089 1.0
A      1  0.2798557739037  0.9009412371075  0.0822897032522 1.0
A      1  0.3904024140171  0.9023001815394  0.2486083136629 1.0
A      1  0.2794945616095  0.9018141932643  0.4160820526387 1.0
A      1  0.3910510216308  0.9026311492809  0.5827985156319 1.0
A      1  0.2803553277220  0.8996520702988  0.7494127383774 1.0
A      1  0.3912399166300  0.9009480288270  0.9160552153524 1.0
A      1  0.1131375424434  0.0006691623628  0.0829880712564 1.0
A      1  0.2236555703724  0.0012618735045  0.2495237349045 1.0
A      1  0.1124843909757  0.0005750007789  0.4164947552388 1.0
A      1  0.2235207156623  0.0002150239010  0.5834340082324 1.0
A      1  0.1133997890326  0.0000426065467  0.7500560184118 1.0
A      1  0.2243979596649  0.0002564553455  0.9162946357539 1.0
A      1  0.7798482960395  0.8009984210024  0.0833895131488 1.0
A      1  0.8904589097708  0.8012369330303  0.2496340284001 1.0
A      1  0.7796368839835  0.8018835400979  0.4166587079076 1.0
A      1  0.8901609740047  0.8010770735956  0.5833365881338 1.0
A      1  0.7804471335170  0.8011425553870  0.7500759572998 1.0
A      1  0.8911778279338  0.8007728908444  0.9166320647523 1.0
A      1  0.6132919551578  0.9010611792079  0.0830441124746 1.0
A      1  0.7240284493139  0.9009925059196  0.2497143597264 1.0
A      1  0.6135908912581  0.9023206059874  0.4162823350522 1.0
A      1  0.7243006139143  0.9008882782082  0.5833731274590 1.0
A      1  0.6134844534855  0.9011126307425  0.7499397845199 1.0
A      1  0.7244191841225  0.9007250926097  0.9166166872712 1.0
A      1  0.4466640523205  0.0012798955155  0.0826601217533 1.0
A      1  0.5574613852162  0.0010293992191  0.2495367853333 1.0
A      1  0.4466253600037  0.0026686129015  0.4158342109930 1.0
A      1  0.5579562771419  0.0011210720215  0.5830044218253 1.0
A      1  0.4469378633485  0.0007499587975  0.7500720634989 1.0
A      1  0.5578206908673  0.0007975331958  0.9164811167529 1.0
A      1  0.7798195611488  0.0008434013976  0.0831593973669 1.0
A      1  0.8904966368474  0.0008857280850  0.2497129156253 1.0
A      1  0.7795731707615  0.0011736253023  0.4164987566275 1.0
A      1  0.8905769010449  0.0005160422985  0.5834275986353 1.0
A      1  0.7799610118540  0.0006422470394  0.7500717284300 1.0
A      1  0.8909392901603  0.0004829688212  0.9166557442979 1.0
END
