TITL AB-20764-5019-511 0.0000000000 4458.8459578500 -1500.5226418863 0 0  183 (Pm) n - 1
REM
REM Run started: at Fri Oct 6 15:38:23 BST 2023 in /home/michal/install/eddp/airss/examples/1.11
REM pp3 from code version ## 0.9.3 July 2022 commit b0220bf5cbf550a3b7
REM
REM
REM
REM Total runtime: s
REM
REM
REM ./AB.cell (a186c3e4acc5915692489c59fabd1559)
REM ## AIRSS Version 0.9.3 July 2022 commit b0220bf5cbf550a3b7
REM compiler GCC version 11.4.0
REM options -cpp -imultiarch x86_64-linux-gnu -mtune=generic -march=x86-64 -g -Og -fpre-include=/usr/include/finclude/math-vector-fortran.h
REM cmdline: airss.pl -pp3 max 100 -seed AB 
REM seed -328376635 -258106521 -1247275144 861548291 -170572112 2106680154 1570812507 1214788939
REM
REM AB.pp (46f9ffe235eb1beff4ce53cde2d82919)
REM 
CELL 1.54180   16.99142   16.35000   16.05000   90.00000   90.00000   90.00000
LATT -1
SFAC A  B  
A      1  0.9436045678261  0.1003877401626  0.0831732773306 1.0
A      1  0.0541153443175  0.0999284633827  0.2495020892129 1.0
A      1  0.3873516436614  0.5105934721828  0.5888826795161 1.0
A      1  0.5561016332659  0.6095768142988  0.5807947156610 1.0
A      1  0.6134532479365  0.5060039372421  0.4141320256143 1.0
A      1  0.4430421320810  0.6010146008124  0.4169927021000 1.0
A      1  0.4581780931868  0.4006066832539  0.4191754873588 1.0
B      2  0.5290652593759  0.3388777832081  0.6232341346287 1.0
B      2  0.5290664321303  0.4623359734896  0.6232346846507 1.0
B      2  0.3314796698059  0.4006069667595  0.4982326477249 1.0
B      2  0.6003451748589  0.4006065677190  0.5371079821697 1.0
A      1  0.9429754540641  0.1000353365455  0.4167530079396 1.0
A      1  0.0537658346460  0.1002410548164  0.5835124626863 1.0
A      1  0.9435964955303  0.1005487298496  0.7500918683768 1.0
A      1  0.0547266319823  0.1003701951868  0.9164439926424 1.0
A      1  0.2771099061506  0.1000016414135  0.0823941055820 1.0
A      1  0.3876172589372  0.1006563676202  0.2499453252290 1.0
A      1  0.2761950493589  0.0979165139986  0.4162451632909 1.0
A      1  0.3871522719993  0.0968479362649  0.5832545274943 1.0
A      1  0.2772125102284  0.1009336516971  0.7496249194839 1.0
A      1  0.3881283584053  0.1003975639591  0.9167182786093 1.0
A      1  0.1098050975806  0.2004381581877  0.0827853146281 1.0
A      1  0.2201963820874  0.1983052551250  0.2466987789861 1.0
A      1  0.1075380970795  0.1989815823899  0.4162951136181 1.0
A      1  0.2194607197911  0.2002296976288  0.5824759406300 1.0
A      1  0.1099109101924  0.2007528876843  0.7500519576739 1.0
A      1  0.2212526713384  0.2003625454932  0.9169118022281 1.0
A      1  0.9435513951054  0.3005408804193  0.0839082880356 1.0
A      1  0.0549947747126  0.3005125967602  0.2504209584471 1.0
A      1  0.9428503189978  0.3008715404227  0.4168702452868 1.0
A      1  0.0516054530518  0.2998979124104  0.5838397657232 1.0
A      1  0.9426748798748  0.3003869397832  0.7506409470726 1.0
A      1  0.0544234917958  0.3001989306693  0.9175353169247 1.0
A      1  0.6105678368816  0.1002867844664  0.0833626183012 1.0
A      1  0.7216753413043  0.1004734411237  0.2497161528511 1.0
A      1  0.6109488704197  0.0979639189417  0.4149272997082 1.0
A      1  0.7224080808848  0.0991734455788  0.5831520951765 1.0
A      1  0.6112174037229  0.0996358831485  0.7503958772263 1.0
A      1  0.7216919809118  0.1004261157563  0.9169019884723 1.0
A      1  0.4435614803527  0.2005241736819  0.0836831498243 1.0
A      1  0.5546566132343  0.1999262004728  0.2493022371828 1.0
A      1  0.4430421233865  0.2001989065743  0.4169925909371 1.0
A      1  0.5561015471263  0.1916370415945  0.5807945324309 1.0
A      1  0.4457376649506  0.1992414284151  0.7516833690142 1.0
A      1  0.5551883938327  0.2001554129263  0.9179340623207 1.0
A      1  0.2772299004639  0.3004241611724  0.0834668728718 1.0
A      1  0.3890301324675  0.3012654170975  0.2510576358806 1.0
A      1  0.2717742993976  0.2921743675512  0.4094201182774 1.0
A      1  0.3873508632354  0.2906198319225  0.5888824686363 1.0
A      1  0.2762944844904  0.3003181238635  0.7518425262885 1.0
A      1  0.3883132765666  0.3004313389342  0.9172443350322 1.0
A      1  0.1101090431599  0.4006068636351  0.0836060179650 1.0
A      1  0.2212559461397  0.4006068168868  0.2489064609863 1.0
A      1  0.1104884006878  0.4006068126664  0.4178312925554 1.0
A      1  0.2126646843069  0.4006067117060  0.5906878811412 1.0
A      1  0.1075965793483  0.4006068463071  0.7533468254022 1.0
A      1  0.2212525603487  0.4006068786293  0.9177201639915 1.0
A      1  0.9435514029160  0.5006728707298  0.0839083244730 1.0
A      1  0.0549947925984  0.5007010872499  0.2504209841169 1.0
A      1  0.9428503420087  0.5003421111443  0.4168702827690 1.0
A      1  0.0516055366531  0.5013156992525  0.5838397881686 1.0
A      1  0.9426749400785  0.5008268217254  0.7506409825774 1.0
A      1  0.0544235164778  0.5010148097894  0.9175353285638 1.0
A      1  0.7772943679507  0.2002257689170  0.0834741044399 1.0
A      1  0.8885287566718  0.2003278947151  0.2501302999584 1.0
A      1  0.7778511697016  0.1996395043961  0.4169736210377 1.0
A      1  0.8867601603977  0.2005506205812  0.5836519936954 1.0
A      1  0.7771180675146  0.2000963254928  0.7504422585292 1.0
A      1  0.8882369189951  0.2003687189279  0.9170221544504 1.0
A      1  0.6107449815167  0.3003355504904  0.0835481026324 1.0
A      1  0.7227789492730  0.3002269535720  0.2494608377574 1.0
A      1  0.6134533216728  0.2952095912282  0.4141318073106 1.0
A      1  0.7180048836124  0.2999965720910  0.5848114817716 1.0
A      1  0.6119238447693  0.2998319954656  0.7534703369831 1.0
A      1  0.7222274850401  0.3005383194337  0.9178581835611 1.0
A      1  0.4439183696503  0.4006068626761  0.0839537326396 1.0
A      1  0.5571756777661  0.4006068310240  0.2490811479165 1.0
A      1  0.4431648355837  0.4006068702005  0.7510086024601 1.0
A      1  0.5548968618927  0.4006069303535  0.9178475417506 1.0
A      1  0.2772299087555  0.5007895487071  0.0834668962386 1.0
A      1  0.3890301597231  0.4999482085805  0.2510576669991 1.0
A      1  0.2717742641621  0.5090393159450  0.4094199790803 1.0
A      1  0.2762945953348  0.5008955186106  0.7518424649363 1.0
A      1  0.3883133045952  0.5007824630091  0.9172443875528 1.0
A      1  0.1098051055007  0.6007755701974  0.0827853185742 1.0
A      1  0.2201963782656  0.6029084401288  0.2466987436180 1.0
A      1  0.1075381277688  0.6022320639342  0.4162951629538 1.0
A      1  0.2194610657180  0.6009836543766  0.5824759419348 1.0
A      1  0.1099110269239  0.6004607936741  0.7500519518121 1.0
A      1  0.2212527198365  0.6008511772099  0.9169118086694 1.0
A      1  0.9436045906693  0.7008260214836  0.0831733384027 1.0
A      1  0.0541153498281  0.7012852123367  0.2495021336554 1.0
A      1  0.9429754627019  0.7011783000200  0.4167530809738 1.0
A      1  0.0537659667236  0.7009724793758  0.5835124988415 1.0
A      1  0.9435965909118  0.7006650312502  0.7500919020108 1.0
A      1  0.0547266826324  0.7008435390636  0.9164440133425 1.0
A      1  0.7773276571177  0.4006068752066  0.0837444062015 1.0
A      1  0.8884476982543  0.4006068520609  0.2505121000998 1.0
A      1  0.7757499749902  0.4006068288901  0.4175764315024 1.0
A      1  0.8854674240628  0.4006068560006  0.5838301995722 1.0
A      1  0.7769854818425  0.4006069313187  0.7508984205566 1.0
A      1  0.8884581528445  0.4006068868114  0.9173095175573 1.0
A      1  0.6107449916639  0.5008782177002  0.0835482151374 1.0
A      1  0.7227789283779  0.5009867405125  0.2494609533549 1.0
A      1  0.7180046870410  0.5012170273813  0.5848116792700 1.0
A      1  0.6119240674317  0.5013821982529  0.7534709754640 1.0
A      1  0.7222276054733  0.5006755479882  0.9178584162567 1.0
A      1  0.4435614814228  0.6006895665117  0.0836832840782 1.0
A      1  0.5546566382660  0.6012874648678  0.2493023924902 1.0
A      1  0.4457377711471  0.6019723692459  0.7516835712702 1.0
A      1  0.5551884017048  0.6010585312106  0.9179343585103 1.0
A      1  0.2771099178991  0.7012120891304  0.0823941374507 1.0
A      1  0.3876172761666  0.7005572746588  0.2499454078980 1.0
A      1  0.2761950752435  0.7032971136508  0.4162451911422 1.0
A      1  0.3871523435093  0.7043655443476  0.5832546159985 1.0
A      1  0.2772125718263  0.7002800232474  0.7496249747121 1.0
A      1  0.3881283745144  0.7008162544083  0.9167183775384 1.0
A      1  0.1103273475655  0.8006672273531  0.0828785418857 1.0
A      1  0.2209667659183  0.8012790717153  0.2493294811426 1.0
A      1  0.1096009327697  0.8011122378617  0.4163975428073 1.0
A      1  0.2201980980439  0.8009571867130  0.5833976507453 1.0
A      1  0.1103256322623  0.8005449777488  0.7499490980762 1.0
A      1  0.2214387149692  0.8006940030573  0.9160798663959 1.0
A      1  0.9437244977057  0.9006068820252  0.0831008648133 1.0
A      1  0.0543333062342  0.9006068380883  0.2495280527178 1.0
A      1  0.9435018289449  0.9006068239501  0.4164519335117 1.0
A      1  0.0542614599362  0.9006067773742  0.5833509442256 1.0
A      1  0.9439378793434  0.9006068855097  0.7501010810942 1.0
A      1  0.0548450408828  0.9006068680773  0.9164861480192 1.0
A      1  0.7772943992289  0.6009880253554  0.0834742545080 1.0
A      1  0.8885287603899  0.6008857942784  0.2501303981284 1.0
A      1  0.7778511303332  0.6015741009524  0.4169737667970 1.0
A      1  0.8867601769668  0.6006630075539  0.5836520584976 1.0
A      1  0.7771181994986  0.6011175525820  0.7504423645963 1.0
A      1  0.8882369851645  0.6008450775090  0.9170222363458 1.0
A      1  0.6105678694307  0.7009270187757  0.0833627824997 1.0
A      1  0.7216753631782  0.7007402640470  0.2497162762217 1.0
A      1  0.6109488832826  0.7032496960447  0.4149274017538 1.0
A      1  0.7224081436618  0.7020402587715  0.5831522082062 1.0
A      1  0.6112174762576  0.7015780742991  0.7503960270147 1.0
A      1  0.7216920192424  0.7007877137930  0.9169021055679 1.0
A      1  0.4436642836096  0.8006610913464  0.0831694538752 1.0
A      1  0.5544054347499  0.8009602118145  0.2491290548166 1.0
A      1  0.4438747015543  0.8010152756025  0.4161446850340 1.0
A      1  0.5549960286573  0.8030729365439  0.5832301200813 1.0
A      1  0.4440494873016  0.8010871560435  0.7501248527842 1.0
A      1  0.5548253745487  0.8007130133548  0.9167686643502 1.0
A      1  0.2769815039029  0.9006068651366  0.0827152591619 1.0
A      1  0.3876823461868  0.9006068239489  0.2496600134984 1.0
A      1  0.2766887418710  0.9006068061135  0.4165191795381 1.0
A      1  0.3872524467464  0.9006067675660  0.5830451626960 1.0
A      1  0.2770737554113  0.9006068420969  0.7497214599009 1.0
A      1  0.3881044769149  0.9006069025592  0.9165725020435 1.0
A      1  0.1103273401502  0.0005465046894  0.0828785206047 1.0
A      1  0.2209667584264  0.9999346004829  0.2493294641983 1.0
A      1  0.1096009215982  0.0001013985149  0.4163975235677 1.0
A      1  0.2201980464140  0.0002562948055  0.5833976255501 1.0
A      1  0.1103255925335  0.0006687300146  0.7499490798554 1.0
A      1  0.2214386990493  0.0005197390529  0.9160798432495 1.0
A      1  0.7771118206581  0.8007707987401  0.0832045629048 1.0
A      1  0.8878612099236  0.8008057548520  0.2497199567115 1.0
A      1  0.7773398806802  0.8011649710782  0.4162915964337 1.0
A      1  0.8882371433380  0.8008831447540  0.5834100220982 1.0
A      1  0.7775173587838  0.8008927354237  0.7502176179724 1.0
A      1  0.8882351223970  0.8007150457185  0.9166666234542 1.0
A      1  0.6104342091335  0.9006068994534  0.0829527774425 1.0
A      1  0.7212260289432  0.9006068504746  0.2495706125561 1.0
A      1  0.6106991495382  0.9006068186150  0.4158469882164 1.0
A      1  0.7220246668461  0.9006068508579  0.5832571270006 1.0
A      1  0.6109865875436  0.9006069506998  0.7504812962609 1.0
A      1  0.7216122225861  0.9006069104778  0.9167510427585 1.0
A      1  0.4436642713259  0.0005526555437  0.0831693930921 1.0
A      1  0.5544054279733  0.0002534789504  0.2491289801252 1.0
A      1  0.4438746891136  0.0001982803274  0.4161446227357 1.0
A      1  0.5549960026622  0.9981408417072  0.5832300607799 1.0
A      1  0.4440494625001  0.0001266029759  0.7501248041880 1.0
A      1  0.5548253614401  0.0005008703499  0.9167685848936 1.0
A      1  0.7771118020373  0.0004429959460  0.0832045069985 1.0
A      1  0.8878611995203  0.0004079357978  0.2497199102323 1.0
A      1  0.7773398705038  0.0000486763700  0.4162915352340 1.0
A      1  0.8882370899330  0.0003304824728  0.5834099813460 1.0
A      1  0.7775173064341  0.0003211155759  0.7502175656144 1.0
A      1  0.8882350927788  0.0004987250655  0.9166665883221 1.0
END
