TITL AB-20764-5019-327 0.0000000000 4458.8459578500 -1495.3859291174 0 0  183 (P1) n - 1
REM
REM Run started: at Fri Oct 6 15:31:34 BST 2023 in /home/michal/install/eddp/airss/examples/1.11
REM pp3 from code version ## 0.9.3 July 2022 commit b0220bf5cbf550a3b7
REM
REM
REM
REM Total runtime: s
REM
REM
REM ./AB.cell (a186c3e4acc5915692489c59fabd1559)
REM ## AIRSS Version 0.9.3 July 2022 commit b0220bf5cbf550a3b7
REM compiler GCC version 11.4.0
REM options -cpp -imultiarch x86_64-linux-gnu -mtune=generic -march=x86-64 -g -Og -fpre-include=/usr/include/finclude/math-vector-fortran.h
REM cmdline: airss.pl -pp3 max 100 -seed AB 
REM seed 665916703 -2111196632 -611413144 -2028406570 -1827248218 868290459 1427969917 1251702993
REM
REM AB.pp (46f9ffe235eb1beff4ce53cde2d82919)
REM 
CELL 1.54180   16.99142   16.35000   16.05000   90.00000   90.00000   90.00000
LATT -1
SFAC A  B  
A      1  0.9459835376189  0.0994843914531  0.0816789981022 1.0
A      1  0.0567269139533  0.0996273886822  0.2483595148236 1.0
A      1  0.6115796757074  0.4976435928498  0.4139460215221 1.0
A      1  0.5602682901114  0.3936462722735  0.5843849313622 1.0
A      1  0.5296992158541  0.5841120224483  0.5739391123178 1.0
A      1  0.4434877757688  0.4010150158467  0.4216255864099 1.0
A      1  0.4352414987464  0.5947074387515  0.4104255004674 1.0
B      2  0.5046862553903  0.7039964170112  0.3306296369253 1.0
B      2  0.3581991396259  0.5469900980603  0.5441072621054 1.0
B      2  0.4176978868075  0.4606459862456  0.6095113647075 1.0
B      2  0.6551955909228  0.6008093182473  0.6545676154144 1.0
A      1  0.9457387740778  0.0993206159000  0.4149298088655 1.0
A      1  0.0570710255753  0.1004300988971  0.5819249057150 1.0
A      1  0.9461035572976  0.0993517364346  0.7486017630475 1.0
A      1  0.0565916829369  0.0995519204097  0.9153308390419 1.0
A      1  0.2787367146925  0.0992510872412  0.0824124330317 1.0
A      1  0.3894077095468  0.0994082748216  0.2492820811515 1.0
A      1  0.2786600907085  0.1002586781245  0.4157230059331 1.0
A      1  0.3897828109579  0.1001075748518  0.5827633664300 1.0
A      1  0.2787009193757  0.0995361269384  0.7493236101097 1.0
A      1  0.3893480361359  0.0989996712826  0.9165649175133 1.0
A      1  0.1122691463418  0.1993406929835  0.0817656399576 1.0
A      1  0.2230568754852  0.1992068727523  0.2486603228286 1.0
A      1  0.1123470651386  0.1993064747327  0.4150960106853 1.0
A      1  0.2238718229246  0.2007731199195  0.5822881543620 1.0
A      1  0.1125377436039  0.1994762281423  0.7487101154464 1.0
A      1  0.2229375450434  0.1992278202639  0.9156721036612 1.0
A      1  0.9458811533806  0.2991256364081  0.0812266954100 1.0
A      1  0.0565156737621  0.2989749172876  0.2480085475435 1.0
A      1  0.9461274580186  0.2982156113022  0.4147933116941 1.0
A      1  0.0587616439363  0.2998377888440  0.5818165939428 1.0
A      1  0.9464423761345  0.2991454377267  0.7482906637100 1.0
A      1  0.0569193114707  0.2994566963183  0.9146409695401 1.0
A      1  0.6125674390813  0.1001297234381  0.0820908339352 1.0
A      1  0.7237169310175  0.0998708651522  0.2482890020942 1.0
A      1  0.6125737099596  0.0981915897885  0.4159387894518 1.0
A      1  0.7236063791186  0.0984395134052  0.5821772987312 1.0
A      1  0.6127161555650  0.0981921719991  0.7486072794179 1.0
A      1  0.7232938949311  0.0992046116653  0.9151156924511 1.0
A      1  0.4454552682540  0.1989605330862  0.0833651325589 1.0
A      1  0.5563745465283  0.1990215003298  0.2496244253238 1.0
A      1  0.4456203917340  0.2004224639270  0.4162623846969 1.0
A      1  0.5568855049712  0.1965555529121  0.5825263461531 1.0
A      1  0.4457416024489  0.1977838687555  0.7500046507694 1.0
A      1  0.5563343506139  0.1984339085600  0.9162105497711 1.0
A      1  0.2785458880320  0.2992445788558  0.0823175061318 1.0
A      1  0.3893531730131  0.2991340816373  0.2501954355877 1.0
A      1  0.2784698717037  0.2992914433512  0.4154015753753 1.0
A      1  0.3909227238724  0.2989650969427  0.5842382729024 1.0
A      1  0.2789814745928  0.2990220442194  0.7491432693886 1.0
A      1  0.3891649112836  0.2976809209881  0.9174209554495 1.0
A      1  0.1118321556072  0.3992421204028  0.0810286232216 1.0
A      1  0.2220263665001  0.3984504755219  0.2474267252836 1.0
A      1  0.1111867776783  0.3986093900828  0.4149151831947 1.0
A      1  0.2281194929953  0.4025238924447  0.5806751840524 1.0
A      1  0.1137245676738  0.3998186645684  0.7475244680625 1.0
A      1  0.2235696170680  0.3993485163880  0.9141531596495 1.0
A      1  0.9450434702757  0.4991105506622  0.0813473602482 1.0
A      1  0.0559027994992  0.4989468123991  0.2478747100208 1.0
A      1  0.9456100060752  0.4982682136067  0.4147126662703 1.0
A      1  0.0572857257598  0.4989009235024  0.5813474926119 1.0
A      1  0.9458939951699  0.4986729768721  0.7482729054561 1.0
A      1  0.0564681959765  0.4989248807650  0.9145947571281 1.0
A      1  0.7794743561322  0.1991869613599  0.0815163310014 1.0
A      1  0.8901786574863  0.1993516685811  0.2481291580462 1.0
A      1  0.7793264014771  0.1979689700618  0.4149438223456 1.0
A      1  0.8912306504290  0.1988680074591  0.5817662191936 1.0
A      1  0.7800917720676  0.1984230623499  0.7488340127128 1.0
A      1  0.8902864127797  0.1992860854294  0.9150622968222 1.0
A      1  0.6125175571077  0.2981541386982  0.0829871189936 1.0
A      1  0.7233183861664  0.2983318472122  0.2481164814879 1.0
A      1  0.6124621237944  0.2981760755594  0.4159417147015 1.0
A      1  0.7251142912569  0.2957028097638  0.5818223325308 1.0
A      1  0.6133858045366  0.2954431995483  0.7499734404658 1.0
A      1  0.7235563320441  0.2989095747972  0.9154195572442 1.0
A      1  0.4451841223084  0.3986794900143  0.0827730412176 1.0
A      1  0.5555773201575  0.3963717371803  0.2498241191982 1.0
A      1  0.4461700293293  0.3949664894899  0.7541394470111 1.0
A      1  0.5562347270009  0.3964838895957  0.9184674370513 1.0
A      1  0.2778504034328  0.4992695024982  0.0809181179206 1.0
A      1  0.3881814279792  0.4975431658181  0.2466801603923 1.0
A      1  0.2735478634701  0.4985453948093  0.4123578922821 1.0
A      1  0.2819975580148  0.4996985192132  0.7441981164411 1.0
A      1  0.3897082344742  0.4984776922847  0.9153819198779 1.0
A      1  0.1108756912262  0.5991091257338  0.0807612278701 1.0
A      1  0.2206074148730  0.5988816436977  0.2470735446659 1.0
A      1  0.1099649177525  0.5999107821079  0.4144026598593 1.0
A      1  0.2188132570378  0.6023823716701  0.5817721124401 1.0
A      1  0.1115850807116  0.5992083348691  0.7484640166677 1.0
A      1  0.2230486929541  0.5983338158068  0.9133969972923 1.0
A      1  0.9447553972018  0.6992992695657  0.0814143996209 1.0
A      1  0.0555576173925  0.6995644554918  0.2479344958111 1.0
A      1  0.9447963937526  0.6995792803990  0.4151464702839 1.0
A      1  0.0556028557755  0.7004004173154  0.5818101851311 1.0
A      1  0.9450146536110  0.6994003554659  0.7484658816585 1.0
A      1  0.0564539761022  0.6992944698640  0.9148204377143 1.0
A      1  0.7794291014510  0.3984827262303  0.0815422220701 1.0
A      1  0.8905917138744  0.3986908405906  0.2476761875865 1.0
A      1  0.7800619865741  0.3962001453409  0.4127640883334 1.0
A      1  0.8924078148810  0.3974045829027  0.5812632240011 1.0
A      1  0.7790317235392  0.3985524376612  0.7476583949272 1.0
A      1  0.8900563178905  0.3989715300937  0.9146128979118 1.0
A      1  0.6130943871549  0.4967492058742  0.0801977071869 1.0
A      1  0.7244587091616  0.4973734631535  0.2481136313699 1.0
A      1  0.7279247109593  0.4917384039695  0.5758132553094 1.0
A      1  0.6093459382130  0.4919424797489  0.7547930976423 1.0
A      1  0.7239150909842  0.4988002920371  0.9156029848986 1.0
A      1  0.4445760375713  0.5988194582692  0.0807028507241 1.0
A      1  0.5590007141910  0.5912193188659  0.2420590711662 1.0
A      1  0.4447780184264  0.5981073090120  0.7483014629325 1.0
A      1  0.5561422458185  0.5982796363103  0.9164194795606 1.0
A      1  0.2760808995967  0.6991259802823  0.0787755018957 1.0
A      1  0.3820855035613  0.6992262788522  0.2420539032379 1.0
A      1  0.2761715328835  0.7005589467840  0.4143849332278 1.0
A      1  0.3845453899542  0.7035178040707  0.5836231652981 1.0
A      1  0.2772222207096  0.7000097236019  0.7491222990723 1.0
A      1  0.3895795187305  0.6990034039797  0.9146743941269 1.0
A      1  0.1109913527571  0.7995366133953  0.0814708146987 1.0
A      1  0.2208972572160  0.8004588340653  0.2481688365979 1.0
A      1  0.1106367422899  0.8000067516527  0.4151123164995 1.0
A      1  0.2212700704390  0.8019272801120  0.5819945988942 1.0
A      1  0.1111078991712  0.7996530183490  0.7484667912006 1.0
A      1  0.2224805640585  0.7996998478996  0.9149472801933 1.0
A      1  0.9450936424841  0.8994581355217  0.0816858070287 1.0
A      1  0.0560133480901  0.8999415766905  0.2482229652760 1.0
A      1  0.9457872171548  0.9003109879457  0.4144879572294 1.0
A      1  0.0571410284712  0.9014739651682  0.5819038415472 1.0
A      1  0.9456180034489  0.8998163002685  0.7489969248892 1.0
A      1  0.0563312335691  0.8995974232634  0.9152934253905 1.0
A      1  0.7782709441059  0.5991505655677  0.0826518766908 1.0
A      1  0.8897160468548  0.5993142777389  0.2480197274592 1.0
A      1  0.7812617676839  0.5971077781642  0.4144187395274 1.0
A      1  0.8914859064693  0.5981753007392  0.5820800438354 1.0
A      1  0.7797291330809  0.5986138063866  0.7498470439884 1.0
A      1  0.8901923699303  0.5991169187016  0.9154194476504 1.0
A      1  0.6117932611379  0.6989708576450  0.0811356820274 1.0
A      1  0.7210344922516  0.6990882197713  0.2504002866597 1.0
A      1  0.6195878703005  0.6944257217320  0.4272509388414 1.0
A      1  0.7342975893655  0.7065005717460  0.5797879056879 1.0
A      1  0.6086245284922  0.7052331724136  0.7575303276159 1.0
A      1  0.7236840071385  0.6992404520342  0.9165778987629 1.0
A      1  0.4442629577209  0.7994490359775  0.0811476557018 1.0
A      1  0.5615904781957  0.8095359316723  0.2385286141979 1.0
A      1  0.4401720759196  0.8064425897349  0.4237330854393 1.0
A      1  0.5569850822619  0.7941364280865  0.5857710771735 1.0
A      1  0.4434063332447  0.8005421884886  0.7501839318215 1.0
A      1  0.5552309085041  0.8014130504816  0.9181587020922 1.0
A      1  0.2783654691623  0.8992428989749  0.0825892229551 1.0
A      1  0.3900530498967  0.8987183797150  0.2502837773106 1.0
A      1  0.2764176557096  0.9013550288114  0.4158739540419 1.0
A      1  0.3882678793991  0.9023765942970  0.5855431815638 1.0
A      1  0.2773691412020  0.9000731144662  0.7495552049513 1.0
A      1  0.3887689637010  0.8999147935187  0.9160368448426 1.0
A      1  0.1119874846320  0.9993725843766  0.0820354149018 1.0
A      1  0.2231117563565  0.9997359580395  0.2487238181795 1.0
A      1  0.1117173328911  0.0002260180361  0.4150399919415 1.0
A      1  0.2227724386303  0.0014183211311  0.5824973164867 1.0
A      1  0.1119549375254  0.9998275363543  0.7489958759066 1.0
A      1  0.2226891004656  0.9996137392451  0.9159509600257 1.0
A      1  0.7781099467989  0.7994203796915  0.0824703267090 1.0
A      1  0.8898459483630  0.7992453679710  0.2477576552472 1.0
A      1  0.7806291513001  0.8010920291379  0.4131061836106 1.0
A      1  0.8937152396664  0.8025503582151  0.5817765710011 1.0
A      1  0.7789557132898  0.7996671084823  0.7491898719661 1.0
A      1  0.8899508022197  0.7994064994916  0.9153987860737 1.0
A      1  0.6140644395871  0.9029966355683  0.0782820963370 1.0
A      1  0.7254592024285  0.9016820051143  0.2477921044897 1.0
A      1  0.6111791927909  0.8960345865053  0.4146858473779 1.0
A      1  0.7232413804293  0.9006950966945  0.5815919240583 1.0
A      1  0.6118842719473  0.9006308283097  0.7490900523029 1.0
A      1  0.7237194566897  0.8994234680621  0.9144276415710 1.0
A      1  0.4456232047509  0.9989918939062  0.0829806540934 1.0
A      1  0.5568395958544  0.0023665619704  0.2489692862555 1.0
A      1  0.4451337349524  0.0016937266092  0.4159591511790 1.0
A      1  0.5561102633143  0.9969674812475  0.5817982459961 1.0
A      1  0.4451631174413  0.9997946271868  0.7498603215848 1.0
A      1  0.5559755659055  0.0003007572410  0.9150158203408 1.0
A      1  0.7798575040939  0.0001625946063  0.0812403473173 1.0
A      1  0.8905381226334  0.0000455175577  0.2482653756655 1.0
A      1  0.7787680031799  0.9993475197491  0.4150909170867 1.0
A      1  0.8903820000754  0.0003028609770  0.5817293128432 1.0
A      1  0.7794706268873  0.9992047560770  0.7485049003085 1.0
A      1  0.8901401340084  0.9996099902295  0.9150649412594 1.0
END
