TITL AB-20764-5019-266 0.0000000000 4458.8459578500 -1495.7208168806 0 0  183 (P1) n - 1
REM
REM Run started: at Fri Oct 6 15:29:08 BST 2023 in /home/michal/install/eddp/airss/examples/1.11
REM pp3 from code version ## 0.9.3 July 2022 commit b0220bf5cbf550a3b7
REM
REM
REM
REM Total runtime: s
REM
REM
REM ./AB.cell (a186c3e4acc5915692489c59fabd1559)
REM ## AIRSS Version 0.9.3 July 2022 commit b0220bf5cbf550a3b7
REM compiler GCC version 11.4.0
REM options -cpp -imultiarch x86_64-linux-gnu -mtune=generic -march=x86-64 -g -Og -fpre-include=/usr/include/finclude/math-vector-fortran.h
REM cmdline: airss.pl -pp3 max 100 -seed AB 
REM seed 1744614448 741446921 -1803826253 -555443894 559973784 -1194160863 -2073267510 -298537291
REM
REM AB.pp (46f9ffe235eb1beff4ce53cde2d82919)
REM 
CELL 1.54180   16.99142   16.35000   16.05000   90.00000   90.00000   90.00000
LATT -1
SFAC A  B  
A      1  0.9440788899811  0.0996177107319  0.0851601698286 1.0
A      1  0.0547196168121  0.0993318667430  0.2515751332007 1.0
A      1  0.4450957937475  0.3988755250278  0.4203531615850 1.0
A      1  0.5454203764353  0.6078840833070  0.5913783956241 1.0
A      1  0.4044596475609  0.4833325711742  0.5946467738559 1.0
A      1  0.4550234666093  0.6003218734220  0.4114254927349 1.0
A      1  0.6119092701510  0.4933340900115  0.4030125694462 1.0
B      2  0.5682463748640  0.4498030690733  0.5531863923781 1.0
B      2  0.3392973862103  0.5919026548069  0.5082903938590 1.0
B      2  0.6643038028926  0.5991009734315  0.5004823569874 1.0
B      2  0.5273925718798  0.3551928690067  0.6258110295601 1.0
A      1  0.9438061615459  0.0999336603065  0.4183143813926 1.0
A      1  0.0545361011633  0.0998517476560  0.5851086364172 1.0
A      1  0.9443068993926  0.0997123665952  0.7519628712354 1.0
A      1  0.0549151541165  0.0994461045811  0.9185033463700 1.0
A      1  0.2772810767203  0.0993188492627  0.0850642315822 1.0
A      1  0.3879937724319  0.0996389945776  0.2518029673209 1.0
A      1  0.2770207358265  0.0990901162307  0.4185849657088 1.0
A      1  0.3876051932245  0.0986762107379  0.5852542739705 1.0
A      1  0.2772037096322  0.0993760482057  0.7518634017567 1.0
A      1  0.3880369111576  0.0990803953176  0.9190892008575 1.0
A      1  0.1105343504031  0.1992990913200  0.0849042546750 1.0
A      1  0.2213202497197  0.1986119724170  0.2514764574073 1.0
A      1  0.1102497007065  0.1989023299410  0.4180764820317 1.0
A      1  0.2203259468053  0.1991396875317  0.5851320626854 1.0
A      1  0.1105339820424  0.1993634676037  0.7518585944537 1.0
A      1  0.2212182542105  0.1990046297260  0.9183755058628 1.0
A      1  0.9441421689117  0.2992293200332  0.0848366214815 1.0
A      1  0.0548257236657  0.2988999593807  0.2512725632858 1.0
A      1  0.9440254542310  0.2991555434880  0.4181939990232 1.0
A      1  0.0557141030299  0.2995817500112  0.5849947741760 1.0
A      1  0.9445913215176  0.2992746408148  0.7518022401933 1.0
A      1  0.0551967005744  0.2993253774114  0.9180469046267 1.0
A      1  0.6109135965053  0.0996435203386  0.0852968495927 1.0
A      1  0.7218188691094  0.0999294613411  0.2519929933602 1.0
A      1  0.6109776702950  0.1008966723067  0.4186136454463 1.0
A      1  0.7218738800106  0.1001471165614  0.5852597297871 1.0
A      1  0.6111536242548  0.0994143844983  0.7523424347518 1.0
A      1  0.7217676377305  0.0996172523560  0.9189422437854 1.0
A      1  0.4442225235664  0.1991386684427  0.0862174860333 1.0
A      1  0.5552308395792  0.1996427156664  0.2523119961001 1.0
A      1  0.4438462457690  0.1987449560121  0.4180157903355 1.0
A      1  0.5543289333582  0.1984806095942  0.5857281918443 1.0
A      1  0.4440189295938  0.1982837862188  0.7527085687452 1.0
A      1  0.5546389396292  0.1990273696097  0.9190996423683 1.0
A      1  0.2769439897900  0.2987073258496  0.0849114198606 1.0
A      1  0.3878402472776  0.2994917643024  0.2521420743772 1.0
A      1  0.2770153854356  0.2971542385290  0.4179416892113 1.0
A      1  0.3864080292967  0.2933197814909  0.5852854102269 1.0
A      1  0.2766364769554  0.2990067951023  0.7518047099186 1.0
A      1  0.3873684798192  0.2974476947937  0.9209412719154 1.0
A      1  0.1103150921290  0.3991791771046  0.0841013961067 1.0
A      1  0.2209976689768  0.3974117689244  0.2488160538996 1.0
A      1  0.1100439897490  0.3979055676454  0.4180851292720 1.0
A      1  0.2240379110887  0.4013409333580  0.5838024432341 1.0
A      1  0.1107863905388  0.3998242196699  0.7510225302080 1.0
A      1  0.2217210655130  0.3991898634784  0.9181185673095 1.0
A      1  0.9443217239842  0.4991897507029  0.0840501996866 1.0
A      1  0.0564986318653  0.4991020728536  0.2512643662076 1.0
A      1  0.9460579366137  0.4990066540817  0.4175060254155 1.0
A      1  0.0533712025934  0.4989438525206  0.5850833476067 1.0
A      1  0.9427156892035  0.4993226465161  0.7511046601181 1.0
A      1  0.0548794777575  0.4990943981479  0.9182270319998 1.0
A      1  0.7776366163844  0.1994375362275  0.0856470497855 1.0
A      1  0.8881667363501  0.1996249817832  0.2518121451462 1.0
A      1  0.7771624624928  0.2004615527178  0.4186961052060 1.0
A      1  0.8881282842102  0.1997977460745  0.5851998533972 1.0
A      1  0.7779785703640  0.1989919236398  0.7521929421753 1.0
A      1  0.8885814770821  0.1994554908654  0.9185970687244 1.0
A      1  0.6112264835205  0.2985871799130  0.0845356464395 1.0
A      1  0.7214741613233  0.3002654523318  0.2523952040454 1.0
A      1  0.6095853959231  0.2998565325739  0.4212929855596 1.0
A      1  0.7188692497759  0.2980939463141  0.5862000785729 1.0
A      1  0.6114679411401  0.2980385788204  0.7537871202944 1.0
A      1  0.7220643371178  0.2986362004203  0.9192007880828 1.0
A      1  0.4433825993600  0.3990489257238  0.0842855122017 1.0
A      1  0.5539540836895  0.3973003530665  0.2467834452163 1.0
A      1  0.4429669447182  0.3951692830989  0.7606754213322 1.0
A      1  0.5557408262054  0.3989199590950  0.9196567276678 1.0
A      1  0.2769941076451  0.4992713414524  0.0850196984743 1.0
A      1  0.3897148841410  0.4994485419879  0.2506247346362 1.0
A      1  0.2746531471163  0.4926913372548  0.4109288989614 1.0
A      1  0.2773994778193  0.4993451775924  0.7516535849981 1.0
A      1  0.3877052948419  0.4994286605293  0.9201418249823 1.0
A      1  0.1104914447835  0.5994776097640  0.0847125983384 1.0
A      1  0.2224199490076  0.5995475024687  0.2506032117308 1.0
A      1  0.1120639496018  0.5992542256359  0.4188341738077 1.0
A      1  0.2142233980026  0.6008865722244  0.5911790614479 1.0
A      1  0.1080609509890  0.5995574885317  0.7540741420503 1.0
A      1  0.2214778298045  0.5993444972274  0.9187270800609 1.0
A      1  0.9444383234395  0.7000968518097  0.0841082638933 1.0
A      1  0.0564652283851  0.6996798944252  0.2514479432473 1.0
A      1  0.9460515291266  0.7004310993339  0.4176538274957 1.0
A      1  0.0525642721371  0.7001546593217  0.5853619536413 1.0
A      1  0.9422845122632  0.6995814685276  0.7513139467575 1.0
A      1  0.0548500747496  0.6998616365894  0.9185180988838 1.0
A      1  0.7778520964922  0.3989733315484  0.0836433208456 1.0
A      1  0.8892726075022  0.3994599061687  0.2512241367422 1.0
A      1  0.7783863899583  0.4001231587144  0.4184476353656 1.0
A      1  0.8889208303232  0.3979261821135  0.5850264853311 1.0
A      1  0.7778699516469  0.3974354869223  0.7541238189311 1.0
A      1  0.8888050409012  0.3993113910410  0.9183799692454 1.0
A      1  0.6112048082894  0.4992865229275  0.0828546478762 1.0
A      1  0.7247317369796  0.4996823217224  0.2465057943277 1.0
A      1  0.7231214922089  0.4909359644411  0.5905987242852 1.0
A      1  0.6061781893119  0.4965803160387  0.7471190722794 1.0
A      1  0.7211935930145  0.4992694678651  0.9165984828742 1.0
A      1  0.4440517605785  0.5997414166762  0.0840888124835 1.0
A      1  0.5578074465072  0.6009500764904  0.2455696160953 1.0
A      1  0.4408609905293  0.6002048423834  0.7554320239877 1.0
A      1  0.5551388374771  0.5990880942061  0.9172961703920 1.0
A      1  0.2771304649752  0.6996453010365  0.0849603649675 1.0
A      1  0.3891127565547  0.6999977070681  0.2508483296531 1.0
A      1  0.2763026932851  0.7021666263959  0.4158165115116 1.0
A      1  0.3877609650816  0.7107754131580  0.5922858002089 1.0
A      1  0.2755998365197  0.7004523629647  0.7539407159998 1.0
A      1  0.3880319250526  0.7003451762896  0.9194408432432 1.0
A      1  0.1106254331074  0.7997788817126  0.0849672136571 1.0
A      1  0.2218430848105  0.8002957227195  0.2509216037470 1.0
A      1  0.1105059874872  0.8002685271056  0.4183239571991 1.0
A      1  0.2200751757717  0.8004710750196  0.5849738799938 1.0
A      1  0.1096851271330  0.7996244664611  0.7517780652662 1.0
A      1  0.2212526752980  0.8000075122380  0.9188993304421 1.0
A      1  0.9442456705853  0.8999654325709  0.0851180162395 1.0
A      1  0.0551441058261  0.8996715695262  0.2516325535336 1.0
A      1  0.9441410177877  0.9003341652057  0.4181916134930 1.0
A      1  0.0548445752007  0.9003484707542  0.5850719689753 1.0
A      1  0.9442583973696  0.9001903831572  0.7519829923778 1.0
A      1  0.0550333303307  0.8998090523670  0.9185166978075 1.0
A      1  0.7779879868790  0.5999064177265  0.0825425401888 1.0
A      1  0.8916940951488  0.5997695792243  0.2480946076918 1.0
A      1  0.7849270158297  0.6001248853013  0.4100893508789 1.0
A      1  0.8859478499267  0.5992259485641  0.5834879165581 1.0
A      1  0.7755512921858  0.5988876749989  0.7516044222558 1.0
A      1  0.8885250503156  0.5994249331221  0.9174058730137 1.0
A      1  0.6112822496832  0.7005011973559  0.0826411071874 1.0
A      1  0.7233603666692  0.7004019049706  0.2486119947009 1.0
A      1  0.6102085692446  0.7101801861477  0.4099741286394 1.0
A      1  0.7247739599851  0.7073579659643  0.5908764763728 1.0
A      1  0.6102682449342  0.7004416431179  0.7533173237007 1.0
A      1  0.7222230806911  0.6999764375861  0.9178348805582 1.0
A      1  0.4436741660212  0.8000352505229  0.0844447955086 1.0
A      1  0.5542107709728  0.8023039080606  0.2480922665906 1.0
A      1  0.4428593087973  0.8008807954590  0.4188339611879 1.0
A      1  0.5563454994902  0.8034449345208  0.5843751389780 1.0
A      1  0.4450458591201  0.8018539903613  0.7547173557153 1.0
A      1  0.5553330591951  0.8002573259959  0.9188917725740 1.0
A      1  0.2772053246828  0.8998351211451  0.0850712994660 1.0
A      1  0.3879447840560  0.9001678520154  0.2517737170015 1.0
A      1  0.2769207306672  0.9005518463799  0.4186460705574 1.0
A      1  0.3880416037430  0.9033149039910  0.5855526515890 1.0
A      1  0.2771681077594  0.8995934998322  0.7517856916383 1.0
A      1  0.3879118913234  0.9001949129863  0.9190805498018 1.0
A      1  0.1106730745998  0.9996273199917  0.0850679019742 1.0
A      1  0.2214099180375  0.9996254602338  0.2517216270978 1.0
A      1  0.1103136599569  0.9998237524387  0.4183392029128 1.0
A      1  0.2207581717519  0.9999660875199  0.5852994219979 1.0
A      1  0.1106319443040  0.9996447721771  0.7518784966909 1.0
A      1  0.2214270796707  0.9995703578965  0.9184101346839 1.0
A      1  0.7779281320039  0.8003919016967  0.0843408176110 1.0
A      1  0.8891508084087  0.7996895491337  0.2514660020342 1.0
A      1  0.7783476824514  0.8003323451240  0.4186419583157 1.0
A      1  0.8893978879521  0.8014285695017  0.5850899692628 1.0
A      1  0.7780873418141  0.8017597321865  0.7540520337449 1.0
A      1  0.8889049334942  0.7999268442102  0.9186051853573 1.0
A      1  0.6111524157466  0.9005526203944  0.0844989388950 1.0
A      1  0.7219376977915  0.8998291766847  0.2517383842968 1.0
A      1  0.6109601932772  0.9037467335707  0.4177739916595 1.0
A      1  0.7225071852389  0.9027155757563  0.5850921585476 1.0
A      1  0.6114686315913  0.9003980777617  0.7520065174894 1.0
A      1  0.7218649704373  0.9003210894924  0.9189110695412 1.0
A      1  0.4441065229161  0.9996091247216  0.0853860368588 1.0
A      1  0.5549728973022  0.0007879269683  0.2514013510731 1.0
A      1  0.4440252374371  0.0002014640817  0.4181309618314 1.0
A      1  0.5551038173665  0.0009833012445  0.5854737836023 1.0
A      1  0.4442244345740  0.0000386325424  0.7525019889737 1.0
A      1  0.5549322658671  0.9997465515829  0.9186198504068 1.0
A      1  0.7776371910241  0.9999714841328  0.0854103301312 1.0
A      1  0.8884481633521  0.9996718863426  0.2516609664432 1.0
A      1  0.7778907243295  0.0006478128478  0.4181940565376 1.0
A      1  0.8887115450495  0.0005338057954  0.5851892658099 1.0
A      1  0.7778814180465  0.0004004780327  0.7522136064862 1.0
A      1  0.8884695033166  0.9997308503344  0.9186605864474 1.0
END
