TITL AB-20764-5019-99 0.0000000000 4458.8459578500 -1501.1773896993 0 0  183 (P1) n - 1
REM
REM Run started: at Fri Oct 6 15:22:51 BST 2023 in /home/michal/install/eddp/airss/examples/1.11
REM pp3 from code version ## 0.9.3 July 2022 commit b0220bf5cbf550a3b7
REM
REM
REM
REM Total runtime: s
REM
REM
REM ./AB.cell (a186c3e4acc5915692489c59fabd1559)
REM ## AIRSS Version 0.9.3 July 2022 commit b0220bf5cbf550a3b7
REM compiler GCC version 11.4.0
REM options -cpp -imultiarch x86_64-linux-gnu -mtune=generic -march=x86-64 -g -Og -fpre-include=/usr/include/finclude/math-vector-fortran.h
REM cmdline: airss.pl -pp3 max 100 -seed AB 
REM seed 431438920 483535946 -985303941 1848794915 1391383249 -542572405 1092677021 606476597
REM
REM AB.pp (46f9ffe235eb1beff4ce53cde2d82919)
REM 
CELL 1.54180   16.99142   16.35000   16.05000   90.00000   90.00000   90.00000
LATT -1
SFAC A  B  
A      1  0.9459370529515  0.1010387075208  0.0810945815472 1.0
A      1  0.0568626431350  0.1011530071021  0.2477723001845 1.0
A      1  0.4406662657973  0.4001755166496  0.3975538446989 1.0
A      1  0.4289930215393  0.4773976656346  0.5739954759665 1.0
A      1  0.5626234078887  0.6071489640601  0.5821629114294 1.0
A      1  0.6090023309506  0.4960315803157  0.4197349048845 1.0
A      1  0.4462100997438  0.6014258050859  0.4146261333035 1.0
B      2  0.5229726400660  0.3477749851204  0.5179625695613 1.0
B      2  0.3420608848829  0.5794938255435  0.6474079320961 1.0
B      2  0.5232713811498  0.3481536870987  0.6431824173933 1.0
B      2  0.5880474515566  0.4392501217071  0.5807860933983 1.0
A      1  0.9461126990074  0.1017962287019  0.4144509569759 1.0
A      1  0.0560034556065  0.1018041395180  0.5811089646336 1.0
A      1  0.9458412208595  0.1012887749632  0.7476880404722 1.0
A      1  0.0566722819222  0.1005223484988  0.9145994816270 1.0
A      1  0.2790202806067  0.1009374307355  0.0811599721395 1.0
A      1  0.3900068219547  0.1004239321703  0.2476234365629 1.0
A      1  0.2795616585729  0.1018445021107  0.4146396729766 1.0
A      1  0.3901732236287  0.0994314147118  0.5810505544041 1.0
A      1  0.2795269702628  0.1009181589547  0.7475104941823 1.0
A      1  0.3899379205967  0.1005844099291  0.9139181286934 1.0
A      1  0.1117996750326  0.2010188223303  0.0814693923407 1.0
A      1  0.2228104788207  0.2007187641873  0.2480109026785 1.0
A      1  0.1121068634470  0.2015058631562  0.4143911335698 1.0
A      1  0.2211572308074  0.2006659728700  0.5813989507762 1.0
A      1  0.1115199475538  0.2004741966004  0.7483627852156 1.0
A      1  0.2226543785779  0.1996929089360  0.9150859055134 1.0
A      1  0.9453405859798  0.3012565602419  0.0814126073928 1.0
A      1  0.0571876858387  0.3015876683132  0.2483902214947 1.0
A      1  0.9464958465691  0.3021102784273  0.4144546453951 1.0
A      1  0.0575022981068  0.3020257094271  0.5812126478930 1.0
A      1  0.9455105499214  0.3011665231595  0.7479223510969 1.0
A      1  0.0562998230715  0.3006040759521  0.9151217127963 1.0
A      1  0.6131631933249  0.1003649109218  0.0808090957204 1.0
A      1  0.7238943286410  0.1015795630938  0.2477334028112 1.0
A      1  0.6129982759772  0.1006668743255  0.4136544852534 1.0
A      1  0.7237121739094  0.1033769951285  0.5808568254008 1.0
A      1  0.6127150979442  0.1004918454196  0.7479450106159 1.0
A      1  0.7237232644640  0.1014000783290  0.9140551216099 1.0
A      1  0.4457100172986  0.1998822223929  0.0803139782225 1.0
A      1  0.5565122723486  0.2000874096142  0.2453189645710 1.0
A      1  0.4469060211792  0.2024091963929  0.4135342696322 1.0
A      1  0.5568118308841  0.1995234942343  0.5808510945685 1.0
A      1  0.4468235985212  0.2031331293093  0.7484751334888 1.0
A      1  0.5564659860499  0.2000383112938  0.9160284317428 1.0
A      1  0.2774782095299  0.3007084495764  0.0817476008306 1.0
A      1  0.3886168007580  0.2983313888058  0.2429401542988 1.0
A      1  0.2779350155873  0.3011122893747  0.4145780437264 1.0
A      1  0.3856266367553  0.2932686046334  0.5815481625854 1.0
A      1  0.2768138141161  0.2992083437832  0.7494335770435 1.0
A      1  0.3885926768216  0.2997743962713  0.9173507804297 1.0
A      1  0.1112561766139  0.4012375651580  0.0823612663164 1.0
A      1  0.2238946321876  0.4018183977666  0.2491174607982 1.0
A      1  0.1133025885606  0.4025113045315  0.4157000000654 1.0
A      1  0.2280104499673  0.4054672060442  0.5836903531756 1.0
A      1  0.1100334062595  0.4001343943588  0.7481937413257 1.0
A      1  0.2218428903882  0.3991918323990  0.9180465032471 1.0
A      1  0.9455500975613  0.5015620662632  0.0810567683572 1.0
A      1  0.0565220643610  0.5013066400349  0.2477999162143 1.0
A      1  0.9449710579603  0.5017411548567  0.4144757946816 1.0
A      1  0.0551467641506  0.5007716915606  0.5811600131796 1.0
A      1  0.9449255725923  0.5017394464658  0.7477726397257 1.0
A      1  0.0568691471239  0.5012667916178  0.9145436369017 1.0
A      1  0.7797459913369  0.2004674898419  0.0809175111102 1.0
A      1  0.8910160880472  0.2013047505839  0.2478532937665 1.0
A      1  0.7805647186368  0.2017013535134  0.4146729997125 1.0
A      1  0.8891058715452  0.2030701636659  0.5809878914498 1.0
A      1  0.7801478540304  0.2013004929205  0.7471867011251 1.0
A      1  0.8906018492715  0.2008887685490  0.9144205012944 1.0
A      1  0.6127165558938  0.3005742075762  0.0803100640952 1.0
A      1  0.7256142496566  0.3010113852365  0.2449229676158 1.0
A      1  0.6168862400096  0.2977213304104  0.4058699108247 1.0
A      1  0.7151176893820  0.3070624446934  0.5808791541383 1.0
A      1  0.6166374686020  0.2975942327045  0.7554952949711 1.0
A      1  0.7253482944663  0.3010682750353  0.9166192257644 1.0
A      1  0.4453047035711  0.4010570327949  0.0808979070939 1.0
A      1  0.5579633971870  0.4007937494425  0.2442306909108 1.0
A      1  0.4374815519119  0.4041523544360  0.7588039318668 1.0
A      1  0.5564949773973  0.4011283758129  0.9156309308066 1.0
A      1  0.2773390731543  0.5013928815767  0.0818799423104 1.0
A      1  0.3888131143404  0.5039250439648  0.2436295084974 1.0
A      1  0.2804662724547  0.5031641891727  0.4170338747718 1.0
A      1  0.2720293469161  0.4973647530383  0.7574091656466 1.0
A      1  0.3885327996761  0.5035088670634  0.9192073481893 1.0
A      1  0.1116488674780  0.6016011529381  0.0816137032112 1.0
A      1  0.2228931701369  0.6019642185334  0.2483254379198 1.0
A      1  0.1099457130764  0.6021539138599  0.4119246100148 1.0
A      1  0.2135434750368  0.6050992261122  0.5756869968344 1.0
A      1  0.1109440970311  0.6018836156583  0.7474232465577 1.0
A      1  0.2221325218491  0.6026933572468  0.9162889590016 1.0
A      1  0.9454145919066  0.7014961915944  0.0809034575135 1.0
A      1  0.0562866690318  0.7021712222933  0.2470670280931 1.0
A      1  0.9446436981098  0.7022383258676  0.4137443341874 1.0
A      1  0.0540013195044  0.7039860990036  0.5805515100965 1.0
A      1  0.9451101538276  0.7020089430591  0.7479607528243 1.0
A      1  0.0563191733323  0.7015676874220  0.9143358522721 1.0
A      1  0.7792956321252  0.4020119664124  0.0809998848475 1.0
A      1  0.8905118085750  0.4016535574505  0.2476946802559 1.0
A      1  0.7794109000390  0.4014923327704  0.4141223113101 1.0
A      1  0.8895386123985  0.4008834707663  0.5811183951138 1.0
A      1  0.7796483819045  0.4011667288524  0.7478540713294 1.0
A      1  0.8906212490788  0.4014214263332  0.9145325520455 1.0
A      1  0.6128344202171  0.5013885721266  0.0809852670704 1.0
A      1  0.7230369491049  0.5011742181447  0.2489311777141 1.0
A      1  0.7283128440590  0.5050233644664  0.5809661334195 1.0
A      1  0.6105342931150  0.4954291636973  0.7427001529866 1.0
A      1  0.7232443931668  0.5008463350230  0.9132267226378 1.0
A      1  0.4466666943317  0.6024987170939  0.0813106723231 1.0
A      1  0.5572603161804  0.6003573287319  0.2490425117901 1.0
A      1  0.4517031582086  0.6022623235263  0.7525107806219 1.0
A      1  0.5586230857546  0.6006493890363  0.9152893351174 1.0
A      1  0.2792904837979  0.7013758389274  0.0815774266697 1.0
A      1  0.3905419477586  0.7020817264193  0.2477276807018 1.0
A      1  0.2793555011843  0.7025978163291  0.4135200622135 1.0
A      1  0.3942137366104  0.7069837144782  0.5766723315988 1.0
A      1  0.2801365268650  0.6992530940394  0.7461092942299 1.0
A      1  0.3901545511207  0.7019835853786  0.9146321201435 1.0
A      1  0.1125971326298  0.8013367054209  0.0806289840928 1.0
A      1  0.2233803306018  0.8017639515125  0.2474448451926 1.0
A      1  0.1124412004786  0.8017967698836  0.4142382583025 1.0
A      1  0.2238656256831  0.8022238666628  0.5807805914568 1.0
A      1  0.1129158885686  0.8011592372165  0.7473024237161 1.0
A      1  0.2237106085761  0.8011253143524  0.9136837865872 1.0
A      1  0.9460587807370  0.9013521471457  0.0809445694154 1.0
A      1  0.0568931355149  0.9015933056166  0.2475804467758 1.0
A      1  0.9460402378230  0.9020467773136  0.4142026409768 1.0
A      1  0.0569743362842  0.9024714149186  0.5809028626905 1.0
A      1  0.9462762974690  0.9017837490269  0.7476454890019 1.0
A      1  0.0570281103540  0.9011003931081  0.9141611961845 1.0
A      1  0.7789741685211  0.6011271720024  0.0811186501766 1.0
A      1  0.8899961000051  0.6015059363680  0.2476247730762 1.0
A      1  0.7780795971810  0.6015994815859  0.4139338844721 1.0
A      1  0.8912313388505  0.6028437333153  0.5809530059275 1.0
A      1  0.7785647936010  0.6015147873033  0.7481670819660 1.0
A      1  0.8900923837155  0.6012920187701  0.9144778385884 1.0
A      1  0.6128076894268  0.7012732975560  0.0814693137215 1.0
A      1  0.7238182252904  0.7015377716659  0.2474538326524 1.0
A      1  0.6129410748566  0.7011330141494  0.4138995387901 1.0
A      1  0.7261590624368  0.7042640925883  0.5809823156228 1.0
A      1  0.6147430346347  0.7020020677741  0.7488116207178 1.0
A      1  0.7243035243745  0.7015903086405  0.9150605993700 1.0
A      1  0.4460346088289  0.8016397994645  0.0808873254774 1.0
A      1  0.5574632829234  0.8011159009080  0.2471351970494 1.0
A      1  0.4471996527113  0.8029861664617  0.4124883874910 1.0
A      1  0.5591806512639  0.8039778576683  0.5807569108776 1.0
A      1  0.4466181580020  0.8013413937832  0.7471025429917 1.0
A      1  0.5571474257209  0.8008742454159  0.9144465355020 1.0
A      1  0.2792201307798  0.9011579292108  0.0806439176275 1.0
A      1  0.3902264654001  0.9014732434936  0.2470919672782 1.0
A      1  0.2796292051719  0.9019499989288  0.4141607283249 1.0
A      1  0.3908542697015  0.9026400928511  0.5805383941653 1.0
A      1  0.2797654855228  0.9007274878243  0.7473050593001 1.0
A      1  0.3904855889489  0.9011255176973  0.9139630288221 1.0
A      1  0.1126298305240  0.0011434338213  0.0809855370634 1.0
A      1  0.2235018943176  0.0012348413629  0.2477091870712 1.0
A      1  0.1127786380259  0.0017823072320  0.4143391349608 1.0
A      1  0.2232963597296  0.0014638216710  0.5809599748660 1.0
A      1  0.1128546246119  0.0011751294727  0.7476491710135 1.0
A      1  0.2236237567268  0.0006136842136  0.9141212220092 1.0
A      1  0.7792810890758  0.8014306547841  0.0810780371518 1.0
A      1  0.8901357441199  0.8018618193767  0.2474026484148 1.0
A      1  0.7791802491832  0.8022278638126  0.4138704402698 1.0
A      1  0.8902339958433  0.8035448111456  0.5808762558503 1.0
A      1  0.7797782398695  0.8023568919738  0.7480644683450 1.0
A      1  0.8903293677528  0.8016689898309  0.9145247320505 1.0
A      1  0.6127453245947  0.9009998435384  0.0807909139953 1.0
A      1  0.7237922550717  0.9017143232390  0.2473677464936 1.0
A      1  0.6132830651727  0.9016852661211  0.4137292675185 1.0
A      1  0.7243795526086  0.9033951694434  0.5809505265596 1.0
A      1  0.6130051020331  0.9015388662994  0.7479671574647 1.0
A      1  0.7236909393408  0.9014837600078  0.9144303786720 1.0
A      1  0.4459529458903  0.0010127089458  0.0806599713634 1.0
A      1  0.5570479161560  0.0008513479865  0.2471847103816 1.0
A      1  0.4463930517625  0.0020593476382  0.4138632513176 1.0
A      1  0.5576447276239  0.0016809109369  0.5807634183702 1.0
A      1  0.4462980210103  0.0015928036927  0.7476775568771 1.0
A      1  0.5570019019595  0.0007863585681  0.9144224396677 1.0
A      1  0.7794714630714  0.0010781988407  0.0809104739390 1.0
A      1  0.8903462396201  0.0015556664328  0.2476316301474 1.0
A      1  0.7796294690950  0.0019912070909  0.4142240844376 1.0
A      1  0.8902284450013  0.0027531347376  0.5809686870591 1.0
A      1  0.7794726304158  0.0017904325766  0.7476456115002 1.0
A      1  0.8902468755566  0.0012012482904  0.9143299023260 1.0
END
