TITL AB-20764-5019-274 0.0000000000 4458.8459578500 -1497.8403257704 0 0  183 (P1) n - 1
REM
REM Run started: at Fri Oct 6 15:29:26 BST 2023 in /home/michal/install/eddp/airss/examples/1.11
REM pp3 from code version ## 0.9.3 July 2022 commit b0220bf5cbf550a3b7
REM
REM
REM
REM Total runtime: s
REM
REM
REM ./AB.cell (a186c3e4acc5915692489c59fabd1559)
REM ## AIRSS Version 0.9.3 July 2022 commit b0220bf5cbf550a3b7
REM compiler GCC version 11.4.0
REM options -cpp -imultiarch x86_64-linux-gnu -mtune=generic -march=x86-64 -g -Og -fpre-include=/usr/include/finclude/math-vector-fortran.h
REM cmdline: airss.pl -pp3 max 100 -seed AB 
REM seed -1243780538 1621141027 -439253870 1375530368 -691177477 446712460 802731863 -418658552
REM
REM AB.pp (46f9ffe235eb1beff4ce53cde2d82919)
REM 
CELL 1.54180   16.99142   16.35000   16.05000   90.00000   90.00000   90.00000
LATT -1
SFAC A  B  
A      1  0.9457934153287  0.1039693570179  0.0837120763317 1.0
A      1  0.0570966828292  0.1050805160471  0.2504976345328 1.0
A      1  0.4471919586461  0.6151624187687  0.4049802684900 1.0
A      1  0.4013527706657  0.4786315157099  0.5225503963706 1.0
A      1  0.5621007505491  0.3946444872307  0.5830124452027 1.0
A      1  0.5572920476984  0.6037563270909  0.5796476523078 1.0
A      1  0.7227219734299  0.5025882411380  0.5835300519243 1.0
B      2  0.4677584937705  0.3508704840555  0.4498184066732 1.0
B      2  0.3526908372982  0.4255483738128  0.6601017259104 1.0
B      2  0.4722521039553  0.4973026674156  0.6587874529316 1.0
B      2  0.4621217660828  0.4515051554725  0.3718323439876 1.0
A      1  0.9464716018485  0.1038822120694  0.4168242973032 1.0
A      1  0.0574622840904  0.1040827356713  0.5835256656027 1.0
A      1  0.9463679674715  0.1034348622472  0.7502774392635 1.0
A      1  0.0565201636101  0.1044767773093  0.9171036647424 1.0
A      1  0.2786478236450  0.1048714870785  0.0842750114003 1.0
A      1  0.3896457379617  0.1044486054173  0.2506266524071 1.0
A      1  0.2788929783911  0.1048314941729  0.4178800299705 1.0
A      1  0.3900479863091  0.0981836481891  0.5844021898700 1.0
A      1  0.2788801792615  0.1042080400282  0.7507038049896 1.0
A      1  0.3896810716746  0.1025774704974  0.9185195474375 1.0
A      1  0.1123212116746  0.2046260327917  0.0841467142023 1.0
A      1  0.2246604427790  0.2056258737739  0.2523124907145 1.0
A      1  0.1138019786590  0.2053455007850  0.4172877191008 1.0
A      1  0.2239887144685  0.2039815407623  0.5840059767585 1.0
A      1  0.1128060107641  0.2045115722567  0.7502839123446 1.0
A      1  0.2226140423893  0.2038429604584  0.9175326072745 1.0
A      1  0.9451275743255  0.3039460348119  0.0834072528948 1.0
A      1  0.0559916429885  0.3040812244313  0.2498492324355 1.0
A      1  0.9449812354312  0.3034699753868  0.4168322782585 1.0
A      1  0.0563925677336  0.3038364818889  0.5835757940795 1.0
A      1  0.9458222567758  0.3037488420868  0.7501729412553 1.0
A      1  0.0564830365648  0.3042223521936  0.9166866269235 1.0
A      1  0.6124903672007  0.1032631827558  0.0838860011533 1.0
A      1  0.7236137752412  0.1033759239555  0.2501935774159 1.0
A      1  0.6137849286039  0.1012880980659  0.4170357735324 1.0
A      1  0.7247422415052  0.1017196066072  0.5838231023510 1.0
A      1  0.6135956658922  0.1007990624050  0.7509332395911 1.0
A      1  0.7234064550414  0.1034270417746  0.9171934409779 1.0
A      1  0.4460082051361  0.2039935924151  0.0872396542363 1.0
A      1  0.5574434329710  0.2026724559174  0.2510325804620 1.0
A      1  0.4468356534184  0.1970631456992  0.4169082677176 1.0
A      1  0.5590697299267  0.1985085049157  0.5839685323375 1.0
A      1  0.4469638322504  0.1975950182524  0.7524852081802 1.0
A      1  0.5566779257911  0.2034184167643  0.9183848824948 1.0
A      1  0.2787585581395  0.3042946280203  0.0863841976840 1.0
A      1  0.3929425854050  0.3080856868231  0.2560640481751 1.0
A      1  0.2854909333310  0.3091270233085  0.4190228212440 1.0
A      1  0.3937937735196  0.2924414160814  0.5860422224029 1.0
A      1  0.2802922537335  0.3052522924661  0.7515021279759 1.0
A      1  0.3882327487744  0.2998258479096  0.9244651958934 1.0
A      1  0.1106795296463  0.4045895937969  0.0828577449600 1.0
A      1  0.2213666100342  0.4035108628460  0.2472440224256 1.0
A      1  0.1099878512275  0.4033758698389  0.4157679916950 1.0
A      1  0.2213940386376  0.4036675974563  0.5806284449548 1.0
A      1  0.1125164545378  0.4043867474221  0.7496763954024 1.0
A      1  0.2228495753963  0.4033496836804  0.9184074070711 1.0
A      1  0.9444735354034  0.5041340716672  0.0831733664749 1.0
A      1  0.0558717738875  0.5048423814347  0.2498678096955 1.0
A      1  0.9440856952276  0.5037671562152  0.4165932945183 1.0
A      1  0.0562571728215  0.5043369769876  0.5828561709094 1.0
A      1  0.9450705415824  0.5036957733746  0.7497829570949 1.0
A      1  0.0564640837033  0.5044839834679  0.9159343162235 1.0
A      1  0.7793414908660  0.2032082494602  0.0838359296640 1.0
A      1  0.8902483509247  0.2037856367316  0.2501536449097 1.0
A      1  0.7797769724674  0.2023299066218  0.4167746251634 1.0
A      1  0.8912979139119  0.2028872003200  0.5835837208705 1.0
A      1  0.7807619210325  0.2018256342338  0.7505741493491 1.0
A      1  0.8905320665575  0.2036823034003  0.9170712381266 1.0
A      1  0.6131576012535  0.3025018022062  0.0857195321547 1.0
A      1  0.7244101705209  0.3032806544037  0.2503938334412 1.0
A      1  0.6135191295150  0.3008995200794  0.4155730855130 1.0
A      1  0.7263189681147  0.3008090375419  0.5834602978088 1.0
A      1  0.6163098540731  0.2992749974658  0.7514339809188 1.0
A      1  0.7248772234642  0.3028178587321  0.9177804390268 1.0
A      1  0.4456159786927  0.4043785548866  0.0857430535722 1.0
A      1  0.5579568722782  0.4034616750088  0.2499893579599 1.0
A      1  0.4532090767124  0.3896320505720  0.7692925046750 1.0
A      1  0.5609736561288  0.4029560785483  0.9239354749850 1.0
A      1  0.2767208345796  0.5052598086957  0.0820353968074 1.0
A      1  0.3857714353460  0.5086258425036  0.2447038245058 1.0
A      1  0.2674903737212  0.5086591128902  0.4038073293401 1.0
A      1  0.2737676008736  0.5107713271628  0.7589598712247 1.0
A      1  0.3899955159031  0.5028286533530  0.9197128170461 1.0
A      1  0.1093592279869  0.6049425229340  0.0824505120620 1.0
A      1  0.2194978803149  0.6087114404684  0.2451127529303 1.0
A      1  0.1082027565356  0.6064436432031  0.4162279211732 1.0
A      1  0.2262929572033  0.6000247631988  0.5821050938360 1.0
A      1  0.1100719351393  0.6056930868928  0.7494501559987 1.0
A      1  0.2212082837143  0.6070634601023  0.9192973457863 1.0
A      1  0.9441495956200  0.7044931764928  0.0830536263601 1.0
A      1  0.0544701332996  0.7059224750416  0.2495583669888 1.0
A      1  0.9437601705582  0.7042997447520  0.4167206814183 1.0
A      1  0.0567810459901  0.7039735117282  0.5831995788607 1.0
A      1  0.9443210476849  0.7039011072540  0.7496792890743 1.0
A      1  0.0552000684934  0.7053063395171  0.9162639514402 1.0
A      1  0.7786467580228  0.4037990641023  0.0836892891831 1.0
A      1  0.8898735695964  0.4040218708985  0.2501993453603 1.0
A      1  0.7779356510867  0.4031540156196  0.4171482920047 1.0
A      1  0.8901186278634  0.4036386773654  0.5834029763427 1.0
A      1  0.7788267505117  0.4030332242534  0.7501492892575 1.0
A      1  0.8902288063319  0.4039561963416  0.9167016979556 1.0
A      1  0.6129755323394  0.5045024792777  0.0846875083952 1.0
A      1  0.7233958611395  0.5036776655494  0.2509304329530 1.0
A      1  0.6082146099494  0.5014980760111  0.4171230356526 1.0
A      1  0.6099538538548  0.5020507197042  0.7503026733529 1.0
A      1  0.7240508941215  0.5037979328926  0.9165753354642 1.0
A      1  0.4452664833937  0.6056330848131  0.0822381423363 1.0
A      1  0.5573044975537  0.6037883403637  0.2472395251815 1.0
A      1  0.4415726971510  0.6101389019886  0.7589454826637 1.0
A      1  0.5570184756404  0.6031893069317  0.9178550650481 1.0
A      1  0.2772910415296  0.7063711188041  0.0825190103673 1.0
A      1  0.3874517160880  0.7081696227642  0.2455825926523 1.0
A      1  0.2775548983044  0.7055643651303  0.4149665444609 1.0
A      1  0.3906923025107  0.6970451695677  0.5824392661144 1.0
A      1  0.2766233794659  0.7069701855400  0.7501558572707 1.0
A      1  0.3878407340042  0.7061330230041  0.9193626541774 1.0
A      1  0.1110279676625  0.8048376614987  0.0831644404008 1.0
A      1  0.2215000504707  0.8068475808126  0.2496372151377 1.0
A      1  0.1112236879516  0.8049960582909  0.4164300738044 1.0
A      1  0.2232863884955  0.8022417702058  0.5827364634097 1.0
A      1  0.1109845717939  0.8050341236418  0.7498014367390 1.0
A      1  0.2216644911746  0.8060489088930  0.9166362756653 1.0
A      1  0.9450694771814  0.9042443552926  0.0833306264606 1.0
A      1  0.0558539253503  0.9055146872313  0.2499776594318 1.0
A      1  0.9455874955295  0.9040046195149  0.4166896056415 1.0
A      1  0.0567878264357  0.9039801496954  0.5833357794007 1.0
A      1  0.9452656577756  0.9036852157214  0.7500841780685 1.0
A      1  0.0557536940800  0.9050134355425  0.9167882651153 1.0
A      1  0.7784290838927  0.6040393803973  0.0832760822991 1.0
A      1  0.8893327985995  0.6042684632279  0.2500527659365 1.0
A      1  0.7774277103107  0.6028168499402  0.4168892423606 1.0
A      1  0.8895212827432  0.6036731058310  0.5832302876005 1.0
A      1  0.7778855972831  0.6027959556078  0.7497413504511 1.0
A      1  0.8896998677199  0.6041499589497  0.9163557304745 1.0
A      1  0.6121286802683  0.7047907038116  0.0827844543915 1.0
A      1  0.7233332579623  0.7040495562487  0.2494420113431 1.0
A      1  0.6137428114632  0.7044452993617  0.4153494266326 1.0
A      1  0.7234273014306  0.7033294459996  0.5832161426061 1.0
A      1  0.6112620471246  0.7021002354742  0.7493152082400 1.0
A      1  0.7229447964187  0.7037304176718  0.9162806759622 1.0
A      1  0.4457302896152  0.8058979562859  0.0827846027044 1.0
A      1  0.5559271876916  0.8037871212229  0.2498317435896 1.0
A      1  0.4450010699557  0.8067521733459  0.4162687966284 1.0
A      1  0.5561261919172  0.8022652825696  0.5828452512599 1.0
A      1  0.4447196414541  0.8044971878874  0.7498403801981 1.0
A      1  0.5559877215867  0.8032656350512  0.9161032359649 1.0
A      1  0.2784233624874  0.9052899416004  0.0834201477972 1.0
A      1  0.3891137389632  0.9055631666196  0.2497165946470 1.0
A      1  0.2780586619689  0.9049279469423  0.4167387432802 1.0
A      1  0.3891380563836  0.9003505830777  0.5836060867207 1.0
A      1  0.2780685377972  0.9049033671704  0.7500526491917 1.0
A      1  0.3891828403629  0.9042517277328  0.9169505823259 1.0
A      1  0.1119782921607  0.0045988856333  0.0836390464375 1.0
A      1  0.2229115031232  0.0056867787101  0.2504728271401 1.0
A      1  0.1122057460308  0.0047279128556  0.4168739393173 1.0
A      1  0.2229255284299  0.0031420952112  0.5837055000461 1.0
A      1  0.1120430043552  0.0044309210810  0.7503217851813 1.0
A      1  0.2227034016951  0.0047426421561  0.9171017602892 1.0
A      1  0.7784256393627  0.8040994258773  0.0830669080293 1.0
A      1  0.8891866935145  0.8047949693482  0.2498220566642 1.0
A      1  0.7790551168564  0.8036028891182  0.4165692849018 1.0
A      1  0.8900791533839  0.8038234791364  0.5833941320257 1.0
A      1  0.7783925148542  0.8028201844716  0.7499301950232 1.0
A      1  0.8892098767224  0.8043908317665  0.9164894923475 1.0
A      1  0.6121893197938  0.9040245728454  0.0833592369028 1.0
A      1  0.7229596591076  0.9038485100106  0.2499759111530 1.0
A      1  0.6128333841923  0.9030193496346  0.4166108330429 1.0
A      1  0.7235768251121  0.9027501902502  0.5833734419556 1.0
A      1  0.6124388427850  0.9019308364237  0.7500460552253 1.0
A      1  0.7228732219594  0.9036580420483  0.9167056527686 1.0
A      1  0.4455664189499  0.0045669847578  0.0839658173074 1.0
A      1  0.5564077678042  0.0034689592101  0.2503465738826 1.0
A      1  0.4457113775343  0.0021847521354  0.4169912564179 1.0
A      1  0.5568615864899  0.0008999664954  0.5837241925856 1.0
A      1  0.4457923583312  0.0015072393734  0.7507427837469 1.0
A      1  0.5564517066057  0.0032179100353  0.9171225226812 1.0
A      1  0.7789515123692  0.0036457592143  0.0835042600848 1.0
A      1  0.8899685807665  0.0044145168147  0.2501213906716 1.0
A      1  0.7798162316636  0.0028881918455  0.4167569302498 1.0
A      1  0.8907674324465  0.0034468195417  0.5834876549225 1.0
A      1  0.7795229669834  0.0023721819865  0.7503227541302 1.0
A      1  0.8897277803215  0.0041813459281  0.9168903946591 1.0
END
