TITL AB-20764-5019-430 0.0000000000 4458.8459578500 -1500.3312127893 0 0  183 (P1) n - 1
REM
REM Run started: at Fri Oct 6 15:35:27 BST 2023 in /home/michal/install/eddp/airss/examples/1.11
REM pp3 from code version ## 0.9.3 July 2022 commit b0220bf5cbf550a3b7
REM
REM
REM
REM Total runtime: s
REM
REM
REM ./AB.cell (a186c3e4acc5915692489c59fabd1559)
REM ## AIRSS Version 0.9.3 July 2022 commit b0220bf5cbf550a3b7
REM compiler GCC version 11.4.0
REM options -cpp -imultiarch x86_64-linux-gnu -mtune=generic -march=x86-64 -g -Og -fpre-include=/usr/include/finclude/math-vector-fortran.h
REM cmdline: airss.pl -pp3 max 100 -seed AB 
REM seed -1047755496 1588191102 560674868 -970093487 426419504 -783978184 522730462 85329262
REM
REM AB.pp (46f9ffe235eb1beff4ce53cde2d82919)
REM 
CELL 1.54180   16.99142   16.35000   16.05000   90.00000   90.00000   90.00000
LATT -1
SFAC A  B  
A      1  0.9448699394190  0.0984995203876  0.0828558044699 1.0
A      1  0.0555837710019  0.0996572995866  0.2496177328851 1.0
A      1  0.5624940563512  0.4759241084380  0.4143669250297 1.0
A      1  0.3879287937291  0.5023101871538  0.5863866190908 1.0
A      1  0.5497456424711  0.6005564793793  0.5878968539798 1.0
A      1  0.4362336511017  0.6087096049477  0.4189731052602 1.0
A      1  0.5560927462234  0.3970825124120  0.5889937198434 1.0
B      2  0.4742454508735  0.3488126274922  0.3679145382452 1.0
B      2  0.6599175924867  0.5798278978971  0.3515340224855 1.0
B      2  0.4073556482831  0.4163515029786  0.4495866501573 1.0
B      2  0.6588377277819  0.5789178598907  0.4809385999070 1.0
A      1  0.9451316283588  0.0997402467294  0.4164166170155 1.0
A      1  0.0559693456312  0.1003407621350  0.5830287097538 1.0
A      1  0.9449475685207  0.0987598997583  0.7497453389046 1.0
A      1  0.0557670196309  0.0994620478929  0.9162164770617 1.0
A      1  0.2779618587151  0.0996336687196  0.0827259509360 1.0
A      1  0.3886396651758  0.0991731190038  0.2490732193026 1.0
A      1  0.2776871311748  0.1014878966128  0.4160697705893 1.0
A      1  0.3887181010906  0.1010030829830  0.5833018212468 1.0
A      1  0.2779059106116  0.1000994650744  0.7494501449249 1.0
A      1  0.3887637126042  0.0994249190316  0.9158214958247 1.0
A      1  0.1113285602183  0.1990252057335  0.0828430225370 1.0
A      1  0.2218811052625  0.1997689721955  0.2495381945682 1.0
A      1  0.1121671851123  0.2007363120257  0.4162778263620 1.0
A      1  0.2233285382152  0.2014994152936  0.5820812943857 1.0
A      1  0.1117539455689  0.1994639330933  0.7492778604318 1.0
A      1  0.2223675409076  0.1995004541970  0.9157439966429 1.0
A      1  0.9453346234765  0.2984250315068  0.0830177187361 1.0
A      1  0.0560771917623  0.2994731277256  0.2497631125709 1.0
A      1  0.9440774045903  0.2997065921023  0.4163873325474 1.0
A      1  0.0563456089137  0.2999031303594  0.5829083668832 1.0
A      1  0.9454285121375  0.2985643428712  0.7496406943045 1.0
A      1  0.0562947807054  0.2992152423911  0.9163070966317 1.0
A      1  0.6116092182425  0.0985226066427  0.0827428871527 1.0
A      1  0.7223988459801  0.0984610049506  0.2497777387700 1.0
A      1  0.6118433369126  0.0984968240756  0.4162456150092 1.0
A      1  0.7226089878546  0.0985925577243  0.5828238569004 1.0
A      1  0.6116124931466  0.0990375730862  0.7497677006096 1.0
A      1  0.7224904079961  0.0985057244212  0.9163082621530 1.0
A      1  0.4452040800379  0.1987401549613  0.0814294703095 1.0
A      1  0.5555247964254  0.1988426977289  0.2490415250216 1.0
A      1  0.4450002301032  0.1981566060047  0.4165689333245 1.0
A      1  0.5561499769674  0.1984657321213  0.5837496249835 1.0
A      1  0.4446828887774  0.2003882266840  0.7489667925918 1.0
A      1  0.5555690469937  0.1983237181888  0.9153690640679 1.0
A      1  0.2773014258959  0.2990899656683  0.0816607907891 1.0
A      1  0.3876650913837  0.2966266430796  0.2449020542029 1.0
A      1  0.2831388061975  0.3030637861221  0.4148238645245 1.0
A      1  0.3907598251070  0.3021913627008  0.5805831519732 1.0
A      1  0.2783457979865  0.3000075884076  0.7490179806833 1.0
A      1  0.3889659538685  0.2990745011081  0.9158638681185 1.0
A      1  0.1114568521406  0.3991850374218  0.0830299832386 1.0
A      1  0.2226899958779  0.3994342171908  0.2495945647312 1.0
A      1  0.1130016566493  0.3988862786687  0.4165061570510 1.0
A      1  0.2231381160119  0.4004753111374  0.5832626686038 1.0
A      1  0.1115070757251  0.3993491480023  0.7499186381358 1.0
A      1  0.2225701119793  0.3995911991561  0.9165710326651 1.0
A      1  0.9449724349035  0.4986214031332  0.0829747621298 1.0
A      1  0.0571369707801  0.4994209630404  0.2496889664166 1.0
A      1  0.9484721248868  0.4975869061228  0.4165510550079 1.0
A      1  0.0570060227077  0.4997344583382  0.5836269140679 1.0
A      1  0.9449508236302  0.4987360140311  0.7501702665683 1.0
A      1  0.0562309842575  0.4994038048182  0.9166717904460 1.0
A      1  0.7788234241657  0.1976063138534  0.0826741076240 1.0
A      1  0.8897909889569  0.1985520192616  0.2493687712979 1.0
A      1  0.7797955879231  0.1993448743794  0.4163794464985 1.0
A      1  0.8898073108456  0.1988945679878  0.5833204374702 1.0
A      1  0.7786555378196  0.1978963029494  0.7497326260866 1.0
A      1  0.8895447485150  0.1989378278753  0.9162610222607 1.0
A      1  0.6127247526851  0.2970977290329  0.0795858286142 1.0
A      1  0.7239980450383  0.2970664170004  0.2489483533906 1.0
A      1  0.6144862697329  0.2931135212661  0.4169812486437 1.0
A      1  0.7236322015934  0.2975928770602  0.5837227006858 1.0
A      1  0.6122550446227  0.2986012148371  0.7510265627727 1.0
A      1  0.7231215261359  0.2978821534010  0.9158081907832 1.0
A      1  0.4440505767626  0.3992850012269  0.0815532907094 1.0
A      1  0.5595386809871  0.3962647973591  0.2389385885104 1.0
A      1  0.4439672366043  0.4002073664200  0.7510177802330 1.0
A      1  0.5557648700904  0.3987798892234  0.9160484185561 1.0
A      1  0.2783258033290  0.4991671304299  0.0849408787874 1.0
A      1  0.3919296385457  0.4936786785893  0.2580652236406 1.0
A      1  0.2762614321285  0.5019706756735  0.4180112271334 1.0
A      1  0.2769582196144  0.5002004457725  0.7508731844745 1.0
A      1  0.3885483327985  0.4994248654918  0.9170299487976 1.0
A      1  0.1114211416250  0.5992501325197  0.0835028196733 1.0
A      1  0.2237313421377  0.5993538528391  0.2504287946004 1.0
A      1  0.1115993122017  0.6002175469441  0.4167766959258 1.0
A      1  0.2220206860551  0.6013507230133  0.5842530324458 1.0
A      1  0.1108551271876  0.5997597850052  0.7505336500395 1.0
A      1  0.2223588112275  0.5995742347925  0.9175033192014 1.0
A      1  0.9450541167010  0.6994151236383  0.0828780723620 1.0
A      1  0.0570751746117  0.6998663188749  0.2494748462366 1.0
A      1  0.9498775776940  0.7026334123868  0.4165835248843 1.0
A      1  0.0564060496276  0.7005486031778  0.5840097835812 1.0
A      1  0.9447904106593  0.6996690724030  0.7504972007548 1.0
A      1  0.0558855424706  0.6995877535778  0.9168538411612 1.0
A      1  0.7792615702025  0.3969160614625  0.0801664998767 1.0
A      1  0.8904678698300  0.3983939701182  0.2500931375753 1.0
A      1  0.7723828197275  0.4052932775958  0.4162873218860 1.0
A      1  0.8903490019643  0.3986164015259  0.5826915409748 1.0
A      1  0.7794442422201  0.3972157954501  0.7523066821918 1.0
A      1  0.8904566679402  0.3988044521394  0.9164050238985 1.0
A      1  0.6117425383834  0.5000011549000  0.0797550742209 1.0
A      1  0.7265847634635  0.4943922973328  0.2413815947890 1.0
A      1  0.7259258381313  0.4942466556083  0.5912670184962 1.0
A      1  0.6110423561262  0.4999393502397  0.7518884705232 1.0
A      1  0.7231090967533  0.4988045125699  0.9160561564974 1.0
A      1  0.4425920580047  0.5988177537628  0.0831398512479 1.0
A      1  0.5499068080949  0.5995943639227  0.2457073905214 1.0
A      1  0.4429425261500  0.6007877690594  0.7526629263264 1.0
A      1  0.5551042146877  0.5998089275274  0.9168052648233 1.0
A      1  0.2769524670052  0.6999429704729  0.0834184769509 1.0
A      1  0.3870676035437  0.7005421697021  0.2495824217440 1.0
A      1  0.2741105017521  0.7034020692531  0.4172423693129 1.0
A      1  0.3864591713319  0.7033423743708  0.5856238419081 1.0
A      1  0.2767720647002  0.7004790377647  0.7511717577521 1.0
A      1  0.3882918366486  0.7000958992824  0.9175155052617 1.0
A      1  0.1109966407081  0.7998027537460  0.0830979106976 1.0
A      1  0.2218091635548  0.8008262221244  0.2496243349613 1.0
A      1  0.1113729028304  0.8022999349649  0.4167054049889 1.0
A      1  0.2213152324287  0.8020373648866  0.5841203044947 1.0
A      1  0.1108478556231  0.8000979871968  0.7504120401281 1.0
A      1  0.2219464513888  0.8000821796305  0.9169067589983 1.0
A      1  0.9443231997974  0.8988969534042  0.0832492303268 1.0
A      1  0.0551165233527  0.8998620542004  0.2497899672064 1.0
A      1  0.9441669652912  0.9003854364748  0.4164991578566 1.0
A      1  0.0549642135543  0.9004613203848  0.5832904179641 1.0
A      1  0.9442554887619  0.8990919979993  0.7497704807646 1.0
A      1  0.0552881398343  0.8996447148493  0.9165636075342 1.0
A      1  0.7787116627262  0.5995777689682  0.0817507730993 1.0
A      1  0.8914773276025  0.5991383676133  0.2480356806682 1.0
A      1  0.7940907212786  0.6032937773100  0.4169560997336 1.0
A      1  0.8913450539945  0.5992316935005  0.5853939520785 1.0
A      1  0.7784385592316  0.5996620486291  0.7510435336892 1.0
A      1  0.8897024443032  0.5990595119446  0.9165075939079 1.0
A      1  0.6109151581872  0.6994353895332  0.0830259128878 1.0
A      1  0.7211534353366  0.6971486243211  0.2508221103120 1.0
A      1  0.6033784787726  0.7105123015145  0.4167231977818 1.0
A      1  0.7208443243563  0.6970975872456  0.5821585370235 1.0
A      1  0.6110161749396  0.6998941921803  0.7504505660933 1.0
A      1  0.7221601504832  0.6991857079068  0.9165850145090 1.0
A      1  0.4439356347738  0.7994255362445  0.0830379245764 1.0
A      1  0.5540206680225  0.8005754571709  0.2485492835261 1.0
A      1  0.4404021812832  0.8048074056790  0.4169068135272 1.0
A      1  0.5539248462738  0.8011509775115  0.5849046730097 1.0
A      1  0.4440094006677  0.8005393738995  0.7511099414588 1.0
A      1  0.5553426437657  0.7994594547458  0.9167873691167 1.0
A      1  0.2775906117885  0.8999154215311  0.0829819781647 1.0
A      1  0.3879560777431  0.9005724384356  0.2492311154184 1.0
A      1  0.2764314292597  0.9026067197577  0.4166294234693 1.0
A      1  0.3878414172601  0.9020459016815  0.5840724401814 1.0
A      1  0.2775864615022  0.9003994076166  0.7503257637952 1.0
A      1  0.3886376811317  0.8998912159535  0.9167131184139 1.0
A      1  0.1111205992515  0.9993601247108  0.0829902566942 1.0
A      1  0.2216834426692  0.0003734973861  0.2494928447895 1.0
A      1  0.1107937993420  0.0010407906074  0.4164050029559 1.0
A      1  0.2217555724591  0.0014594084290  0.5832263013441 1.0
A      1  0.1111256199035  0.9996214908028  0.7498108344021 1.0
A      1  0.2220558995225  0.9998544883209  0.9164001570926 1.0
A      1  0.7776893743281  0.7986856999323  0.0837611562511 1.0
A      1  0.8886327585574  0.7986188968750  0.2502243393370 1.0
A      1  0.7770668309324  0.7995514325750  0.4165027157146 1.0
A      1  0.8883752373831  0.7988362704851  0.5828526444199 1.0
A      1  0.7776184721533  0.7988687213504  0.7492974140184 1.0
A      1  0.8887199980046  0.7991400648324  0.9166011351286 1.0
A      1  0.6111366127922  0.8991886730692  0.0828544758128 1.0
A      1  0.7216994319837  0.8984340566311  0.2500091558069 1.0
A      1  0.6103954319651  0.9029572917400  0.4164941389689 1.0
A      1  0.7216783019623  0.8985897972632  0.5829517448820 1.0
A      1  0.6111776240738  0.8996502357710  0.7502746720722 1.0
A      1  0.7223427366670  0.8987938330585  0.9164994183641 1.0
A      1  0.4445215900842  0.9993486662470  0.0826516760511 1.0
A      1  0.5551433083698  0.9996548009379  0.2492309982901 1.0
A      1  0.4437904330452  0.0012318241344  0.4164589008270 1.0
A      1  0.5551673193239  0.9999498178980  0.5835432867893 1.0
A      1  0.4445755657400  0.0003070347325  0.7500358631762 1.0
A      1  0.5555728728422  0.9990685654379  0.9164016027676 1.0
A      1  0.7779401250921  0.9983512134754  0.0831723399224 1.0
A      1  0.8887549841250  0.9989794491825  0.2496805174544 1.0
A      1  0.7783152230544  0.9993651623317  0.4163928870314 1.0
A      1  0.8888328076427  0.9992708354582  0.5831636137512 1.0
A      1  0.7779529448131  0.9985926490310  0.7496354880586 1.0
A      1  0.8889373848190  0.9990876314785  0.9163984270850 1.0
END
