TITL AB-20764-5019-58 0.0000000000 4458.8459578500 -1487.9065817811 0 0  183 (P1) n - 1
REM
REM Run started: at Fri Oct 6 15:21:23 BST 2023 in /home/michal/install/eddp/airss/examples/1.11
REM pp3 from code version ## 0.9.3 July 2022 commit b0220bf5cbf550a3b7
REM
REM
REM
REM Total runtime: s
REM
REM
REM ./AB.cell (a186c3e4acc5915692489c59fabd1559)
REM ## AIRSS Version 0.9.3 July 2022 commit b0220bf5cbf550a3b7
REM compiler GCC version 11.4.0
REM options -cpp -imultiarch x86_64-linux-gnu -mtune=generic -march=x86-64 -g -Og -fpre-include=/usr/include/finclude/math-vector-fortran.h
REM cmdline: airss.pl -pp3 max 100 -seed AB 
REM seed -2104613920 1464035836 1960801925 1849103366 -1923290181 1686914265 -1526257953 1918716165
REM
REM AB.pp (46f9ffe235eb1beff4ce53cde2d82919)
REM 
CELL 1.54180   16.99142   16.35000   16.05000   90.00000   90.00000   90.00000
LATT -1
SFAC A  B  
A      1  0.9453819322872  0.1001451016078  0.0837433816064 1.0
A      1  0.0563649597164  0.0997516502240  0.2503066036241 1.0
A      1  0.6150178898741  0.5043917707824  0.4199718109165 1.0
A      1  0.4474451438529  0.6071447652162  0.4126665435283 1.0
A      1  0.5619662751096  0.4147784803815  0.5921680208540 1.0
A      1  0.4522180214902  0.4109201532909  0.4150672080179 1.0
A      1  0.4031350652209  0.5138410834131  0.5769248034956 1.0
B      2  0.5080299246658  0.3004467502928  0.5049248293587 1.0
B      2  0.3355045498027  0.4091993000673  0.6652396111951 1.0
B      2  0.5737917322641  0.5964977577708  0.6030960131197 1.0
B      2  0.3294638779520  0.3997028417856  0.3308120442170 1.0
A      1  0.9445377463551  0.0994323005420  0.4170738599424 1.0
A      1  0.0539774109980  0.0987882222491  0.5840836054999 1.0
A      1  0.9442626141101  0.0998347261620  0.7505254305599 1.0
A      1  0.0558401420290  0.1000910002573  0.9175708475167 1.0
A      1  0.2784602614041  0.1004653715073  0.0840120783361 1.0
A      1  0.3891561426019  0.0974330264214  0.2482544144634 1.0
A      1  0.2770284847787  0.0970974211118  0.4174620497850 1.0
A      1  0.3892697240831  0.0957744750163  0.5833288348097 1.0
A      1  0.2784070265107  0.0992622742310  0.7509707719603 1.0
A      1  0.3893458278127  0.0996260275957  0.9169117027285 1.0
A      1  0.1114899049301  0.2007384538385  0.0840511199870 1.0
A      1  0.2232377168898  0.2010887585926  0.2511317754374 1.0
A      1  0.1089937061017  0.1987715105260  0.4170311186640 1.0
A      1  0.2180522291740  0.1961466254079  0.5867678809558 1.0
A      1  0.1095171607631  0.1995345848863  0.7512362022608 1.0
A      1  0.2220495763270  0.1991637779052  0.9185902328181 1.0
A      1  0.9438466565487  0.3000280383708  0.0827653188316 1.0
A      1  0.0533435083635  0.2987946103663  0.2491189490758 1.0
A      1  0.9446100839615  0.3003760448160  0.4164661178437 1.0
A      1  0.0531861256705  0.2990852743210  0.5831297158201 1.0
A      1  0.9444043477657  0.3003352002719  0.7501189293334 1.0
A      1  0.0559757367948  0.3001209002063  0.9158657983010 1.0
A      1  0.6129517011115  0.0993996110992  0.0833795318715 1.0
A      1  0.7236359408745  0.0999468337689  0.2507137195518 1.0
A      1  0.6117480424221  0.1012638099374  0.4185260104892 1.0
A      1  0.7247954370607  0.0976875666046  0.5842706641407 1.0
A      1  0.6137137782056  0.0964685636327  0.7546137688367 1.0
A      1  0.7240384709256  0.0998318195920  0.9177701725550 1.0
A      1  0.4467871660250  0.1981126968715  0.0805076418474 1.0
A      1  0.5588128621825  0.1987603403104  0.2486528639926 1.0
A      1  0.4422191784379  0.1959274369295  0.4108398568484 1.0
A      1  0.5601381309826  0.1883348046410  0.5930882129148 1.0
A      1  0.4451124932057  0.1995296088149  0.7524479078616 1.0
A      1  0.5574439350791  0.2001632866760  0.9168626074273 1.0
A      1  0.2784078837374  0.3002161470929  0.0825755779196 1.0
A      1  0.3947065144789  0.2935501041605  0.2424702997322 1.0
A      1  0.2735504793165  0.2917124997113  0.4234321601532 1.0
A      1  0.3830220398396  0.2879942684773  0.5853969596752 1.0
A      1  0.2749123390454  0.2967188517032  0.7553906795236 1.0
A      1  0.3898145618209  0.3002574810036  0.9179541182127 1.0
A      1  0.1078404455453  0.4006845649657  0.0794314028654 1.0
A      1  0.2117169927774  0.4006334758476  0.2402696469708 1.0
A      1  0.1109098556513  0.4004762978992  0.4129270718782 1.0
A      1  0.2134280377675  0.3989401497686  0.5787262213674 1.0
A      1  0.1115103415982  0.4009659624731  0.7498556632578 1.0
A      1  0.2224472643450  0.4007842739182  0.9182254533369 1.0
A      1  0.9440433189024  0.5011806030422  0.0829896961088 1.0
A      1  0.0533942289270  0.5024373370494  0.2496498358848 1.0
A      1  0.9455207399471  0.5010269414955  0.4170702159055 1.0
A      1  0.0545882165376  0.5015136391219  0.5835430942414 1.0
A      1  0.9448376088429  0.5004819641809  0.7502601710836 1.0
A      1  0.0561660529025  0.5016947019529  0.9161161819118 1.0
A      1  0.7789644966923  0.1994706449703  0.0828697644330 1.0
A      1  0.8898453562058  0.1992997871970  0.2499059792353 1.0
A      1  0.7802964579864  0.1992457131961  0.4166557250793 1.0
A      1  0.8883884366405  0.2000118603917  0.5836491232955 1.0
A      1  0.7783577675046  0.1996052218615  0.7499063249041 1.0
A      1  0.8899729551406  0.2000860994852  0.9165062167930 1.0
A      1  0.6125551275720  0.2998341740444  0.0836432059682 1.0
A      1  0.7265565469255  0.3003915172410  0.2463948560755 1.0
A      1  0.6216134471355  0.3017392840161  0.4072922501795 1.0
A      1  0.7206834401752  0.3003915666678  0.5819477048855 1.0
A      1  0.6139671461116  0.2992478852388  0.7511336366859 1.0
A      1  0.7244540083822  0.3000644852088  0.9170580861044 1.0
A      1  0.4458520434353  0.4008684670655  0.0824836726765 1.0
A      1  0.5575264466363  0.4015147001592  0.2484498861441 1.0
A      1  0.4536598553927  0.3999758332623  0.7581456660044 1.0
A      1  0.5595979261347  0.4005529605386  0.9200477228674 1.0
A      1  0.2784493199019  0.5011706805541  0.0828718405898 1.0
A      1  0.3937657568481  0.5083481738182  0.2433705400795 1.0
A      1  0.2764641014876  0.5085383424072  0.4250445338791 1.0
A      1  0.2735213549059  0.5097774614841  0.7606303621997 1.0
A      1  0.3903243212207  0.5012082735416  0.9180967647934 1.0
A      1  0.1113084503089  0.6006291137654  0.0852091807096 1.0
A      1  0.2233906050749  0.5999108795317  0.2520628726573 1.0
A      1  0.1111083891996  0.6016391999255  0.4181460598106 1.0
A      1  0.2236265128218  0.6009831381390  0.5888484575430 1.0
A      1  0.1093833533533  0.6027589177054  0.7515832216032 1.0
A      1  0.2211740910911  0.6039918602718  0.9214430533616 1.0
A      1  0.9453129648230  0.7009119944648  0.0843495627523 1.0
A      1  0.0564825720874  0.7010668436880  0.2510070464156 1.0
A      1  0.9456337550558  0.7010422210783  0.4172621581289 1.0
A      1  0.0563689849136  0.7010346055636  0.5843386083918 1.0
A      1  0.9451240207015  0.7013666089757  0.7509617320657 1.0
A      1  0.0556111713527  0.7018356642008  0.9182250620135 1.0
A      1  0.7786546808785  0.4009992578005  0.0827859550520 1.0
A      1  0.8900108712560  0.4009405287019  0.2495993363954 1.0
A      1  0.7810464420076  0.4020991501464  0.4167953151654 1.0
A      1  0.8890158517107  0.4002973205651  0.5837087753179 1.0
A      1  0.7786354920671  0.4002209975374  0.7501248830350 1.0
A      1  0.8903697185371  0.4006509864596  0.9165408293765 1.0
A      1  0.6126623382928  0.5015303797736  0.0840022664852 1.0
A      1  0.7238049850350  0.5005806927841  0.2507517918858 1.0
A      1  0.7258142180340  0.5032357096965  0.5848543183401 1.0
A      1  0.6155999953176  0.5040805678256  0.7544107671276 1.0
A      1  0.7249343827536  0.5009876069567  0.9181329955202 1.0
A      1  0.4467469763650  0.6031526847674  0.0812736206788 1.0
A      1  0.5590856850892  0.6021654284781  0.2496815485716 1.0
A      1  0.4467140622135  0.6006536460249  0.7490262249363 1.0
A      1  0.5568898028286  0.6010415472157  0.9173745139526 1.0
A      1  0.2788602999026  0.7012462743906  0.0851378567405 1.0
A      1  0.3896966363751  0.7037736840984  0.2492144545798 1.0
A      1  0.2785569894382  0.7031579605334  0.4179048660848 1.0
A      1  0.3898003894706  0.7042636941046  0.5838212367950 1.0
A      1  0.2786302899082  0.7039961288228  0.7519455398485 1.0
A      1  0.3893229083390  0.7008051934298  0.9165854755493 1.0
A      1  0.1120348487256  0.8006947943209  0.0843648743120 1.0
A      1  0.2225012996338  0.8007655229478  0.2508631313585 1.0
A      1  0.1116332186341  0.8009292617365  0.4175516326475 1.0
A      1  0.2221230119355  0.8006811943653  0.5844979105975 1.0
A      1  0.1117132219804  0.8014462657035  0.7513136691420 1.0
A      1  0.2226547449348  0.8018330269393  0.9182135097210 1.0
A      1  0.9455464661726  0.9004354644810  0.0840672439667 1.0
A      1  0.0560997164086  0.9003962172449  0.2506641475451 1.0
A      1  0.9449615399804  0.9001486919505  0.4173696508803 1.0
A      1  0.0554422929995  0.8998193238764  0.5842914036731 1.0
A      1  0.9451610217535  0.9002654590478  0.7508748631993 1.0
A      1  0.0560079016769  0.9008225003819  0.9176550774109 1.0
A      1  0.7786518885942  0.6012981344614  0.0841502079293 1.0
A      1  0.8893300120178  0.6013671613760  0.2503629766294 1.0
A      1  0.7803637680550  0.6017668350500  0.4168846018408 1.0
A      1  0.8903567422106  0.6014388199808  0.5839834023779 1.0
A      1  0.7803915354961  0.6013227948079  0.7514267836460 1.0
A      1  0.8901667782177  0.6012526377664  0.9174251587224 1.0
A      1  0.6128716622822  0.7015467171024  0.0836397281276 1.0
A      1  0.7236980623506  0.7012505136912  0.2507498100047 1.0
A      1  0.6130552813854  0.7012015818336  0.4183213441873 1.0
A      1  0.7215055673237  0.6987695947354  0.5841972858108 1.0
A      1  0.6118030195470  0.6995461892345  0.7490573148433 1.0
A      1  0.7230601532473  0.7006365327273  0.9169952503669 1.0
A      1  0.4457954398390  0.8013738594209  0.0831523752949 1.0
A      1  0.5568225438934  0.8009352086394  0.2505861614678 1.0
A      1  0.4458230412071  0.8029408124717  0.4166474025291 1.0
A      1  0.5562874812244  0.7960870576820  0.5838407043715 1.0
A      1  0.4456376303758  0.8010772116113  0.7510914781922 1.0
A      1  0.5564507349789  0.8000665808042  0.9171085134883 1.0
A      1  0.2787032505811  0.9008268831269  0.0842362844531 1.0
A      1  0.3894566428940  0.9006579853249  0.2501186756629 1.0
A      1  0.2783555165703  0.9003812718566  0.4172967008420 1.0
A      1  0.3891500612883  0.8998466429439  0.5841761026433 1.0
A      1  0.2786216572295  0.9012931457042  0.7509488895951 1.0
A      1  0.3894224265797  0.9003651469083  0.9171591199749 1.0
A      1  0.1119319792623  0.0005026486941  0.0839296243149 1.0
A      1  0.2222441001091  0.0001889752451  0.2504364136661 1.0
A      1  0.1109144788806  0.9996356895967  0.4174588741573 1.0
A      1  0.2215416109224  0.9987504240114  0.5843281626535 1.0
A      1  0.1113664605241  0.0004867174318  0.7509059036654 1.0
A      1  0.2226131884107  0.0003879882438  0.9176054502823 1.0
A      1  0.7790850180211  0.8006811626899  0.0839574600975 1.0
A      1  0.8898782510984  0.8007126995963  0.2507011972466 1.0
A      1  0.7790334764043  0.8004943884829  0.4174886286709 1.0
A      1  0.8891660424284  0.7998525033416  0.5841254638855 1.0
A      1  0.7786052612796  0.7999056514037  0.7507089694699 1.0
A      1  0.8893695788685  0.8008203025486  0.9175107661952 1.0
A      1  0.6125287603930  0.9003252005626  0.0841315413733 1.0
A      1  0.7233954860669  0.9003892684942  0.2505815700185 1.0
A      1  0.6126809804312  0.9003746126138  0.4171621836932 1.0
A      1  0.7230690404877  0.8984254158785  0.5841320772242 1.0
A      1  0.6123576561198  0.8984752688154  0.7509904535260 1.0
A      1  0.7229807562613  0.9002730716487  0.9175222736126 1.0
A      1  0.4457217821993  0.9997124447606  0.0833674279753 1.0
A      1  0.5568431718132  0.0001784837213  0.2507252786452 1.0
A      1  0.4457528050959  0.9994800060558  0.4167719999165 1.0
A      1  0.5568515600070  0.9948571283696  0.5843515773824 1.0
A      1  0.4459902245299  0.0000379680956  0.7508442606453 1.0
A      1  0.5562197852211  0.9994294292499  0.9181688313354 1.0
A      1  0.7791552738558  0.9999466840404  0.0841526789668 1.0
A      1  0.8898338933504  0.0000306140605  0.2505734841512 1.0
A      1  0.7783706901474  0.9997884570615  0.4171794020639 1.0
A      1  0.8893298617713  0.9990962078287  0.5839107747395 1.0
A      1  0.7791187403305  0.9989373758151  0.7509747516157 1.0
A      1  0.8897372397405  0.0001653274387  0.9175065483612 1.0
END
