TITL AB-20764-5019-581 0.0000000000 4458.8459578500 -1496.0908234391 0 0  183 (P1) n - 1
REM
REM Run started: at Fri Oct 6 15:40:57 BST 2023 in /home/michal/install/eddp/airss/examples/1.11
REM pp3 from code version ## 0.9.3 July 2022 commit b0220bf5cbf550a3b7
REM
REM
REM
REM Total runtime: s
REM
REM
REM ./AB.cell (a186c3e4acc5915692489c59fabd1559)
REM ## AIRSS Version 0.9.3 July 2022 commit b0220bf5cbf550a3b7
REM compiler GCC version 11.4.0
REM options -cpp -imultiarch x86_64-linux-gnu -mtune=generic -march=x86-64 -g -Og -fpre-include=/usr/include/finclude/math-vector-fortran.h
REM cmdline: airss.pl -pp3 max 100 -seed AB 
REM seed -1934627705 1097910227 1521549520 149984417 1134231075 1064371790 -1439611807 1560877003
REM
REM AB.pp (46f9ffe235eb1beff4ce53cde2d82919)
REM 
CELL 1.54180   16.99142   16.35000   16.05000   90.00000   90.00000   90.00000
LATT -1
SFAC A  B  
A      1  0.9434867499789  0.0987304823755  0.0852636673768 1.0
A      1  0.0541722226207  0.0982787915079  0.2520054142985 1.0
A      1  0.4382970590323  0.6032966117170  0.4227692917594 1.0
A      1  0.6214448503303  0.4936635599356  0.4184254212653 1.0
A      1  0.4290545666009  0.3997304597170  0.4395953263080 1.0
A      1  0.3883036566313  0.5050090233437  0.5934817835693 1.0
A      1  0.5549912063931  0.3958901619369  0.5872535270882 1.0
B      2  0.5364938616270  0.5501453852476  0.5413588250820 1.0
B      2  0.5370144900023  0.6439435745194  0.6257443375634 1.0
B      2  0.4992021400667  0.3116931657440  0.3362185279060 1.0
B      2  0.4971632773784  0.4881462611506  0.3352466151229 1.0
A      1  0.9439144008028  0.0975957689392  0.4189361121209 1.0
A      1  0.0542585526897  0.0986741980642  0.5857352760462 1.0
A      1  0.9434240512495  0.0989454222016  0.7522248202780 1.0
A      1  0.0542769704001  0.0989994561497  0.9187753534320 1.0
A      1  0.2766508235271  0.0996248334488  0.0858656056056 1.0
A      1  0.3879954179512  0.1003143386153  0.2529870924483 1.0
A      1  0.2755064476140  0.0980899496426  0.4192398494431 1.0
A      1  0.3867489023348  0.0971882228835  0.5873699864699 1.0
A      1  0.2762531635547  0.0992553860043  0.7527432347874 1.0
A      1  0.3872545044129  0.0991026040641  0.9194698786512 1.0
A      1  0.1089944483823  0.1990277449531  0.0850266008098 1.0
A      1  0.2187959771848  0.1978747167946  0.2514859495295 1.0
A      1  0.1091026873824  0.1980196898718  0.4188523890704 1.0
A      1  0.2200878933846  0.1984131836589  0.5859443115314 1.0
A      1  0.1092990300859  0.1990392108190  0.7522449104415 1.0
A      1  0.2204126448197  0.1987036014115  0.9187401409226 1.0
A      1  0.9426642762748  0.2990405991567  0.0848689241882 1.0
A      1  0.0537685266065  0.2985236419354  0.2517711718104 1.0
A      1  0.9449511768757  0.2980198767198  0.4188796789937 1.0
A      1  0.0553292889805  0.2993517200904  0.5856033107859 1.0
A      1  0.9430839372145  0.2994075816215  0.7520346744186 1.0
A      1  0.0542217749135  0.2992430262439  0.9183153982186 1.0
A      1  0.6107386602668  0.0976084125532  0.0840423320797 1.0
A      1  0.7222575712368  0.0979385139234  0.2519460783528 1.0
A      1  0.6100203190659  0.0986847158731  0.4182520274026 1.0
A      1  0.7213607686454  0.0990908919689  0.5852638976199 1.0
A      1  0.6106163447444  0.0992065691763  0.7520427294793 1.0
A      1  0.7214035776327  0.0992882695558  0.9184838039637 1.0
A      1  0.4434665194450  0.1995483165780  0.0845781550403 1.0
A      1  0.5572977017000  0.1959672670267  0.2479057530266 1.0
A      1  0.4407284067176  0.1957319123907  0.4235297233966 1.0
A      1  0.5544245241475  0.1980601381522  0.5867258182506 1.0
A      1  0.4435130381067  0.1981617914497  0.7540305368405 1.0
A      1  0.5543209791079  0.1985846077897  0.9171079992855 1.0
A      1  0.2741194068554  0.2996655098052  0.0827286546430 1.0
A      1  0.3793582384322  0.2998925853290  0.2459310461374 1.0
A      1  0.2732963853678  0.2971172257716  0.4180917505253 1.0
A      1  0.3854413847923  0.2948828478578  0.5928426550524 1.0
A      1  0.2750072931495  0.2991525931440  0.7538335922132 1.0
A      1  0.3873956330300  0.2992731705329  0.9185497829668 1.0
A      1  0.1079290346289  0.3993385756912  0.0846521198368 1.0
A      1  0.2166117025332  0.3992256259980  0.2512019557292 1.0
A      1  0.1091542529061  0.3991761816438  0.4190263668966 1.0
A      1  0.2228115047381  0.3998519606064  0.5852164351450 1.0
A      1  0.1094061663905  0.3994942824449  0.7515528525418 1.0
A      1  0.2199891192761  0.3994799290791  0.9179359595962 1.0
A      1  0.9426025724770  0.4995729070567  0.0849624304368 1.0
A      1  0.0536414697157  0.4998983081322  0.2517951210643 1.0
A      1  0.9443926644179  0.4996079627585  0.4187578330384 1.0
A      1  0.0551439652475  0.4996827033538  0.5854777298752 1.0
A      1  0.9433624281671  0.4997344541242  0.7520189359156 1.0
A      1  0.0543024871344  0.4997126869453  0.9183320442646 1.0
A      1  0.7775469214472  0.1983433248522  0.0848978540169 1.0
A      1  0.8890523072628  0.1981618885760  0.2518822663557 1.0
A      1  0.7799956375421  0.1964380674224  0.4191281579198 1.0
A      1  0.8891425777608  0.1988265014122  0.5857236379835 1.0
A      1  0.7773317724548  0.1987609708386  0.7521417799472 1.0
A      1  0.8882713129969  0.1990220123814  0.9185229549408 1.0
A      1  0.6122677181891  0.2957877670873  0.0779726976408 1.0
A      1  0.7247064310407  0.2971444280943  0.2522387338972 1.0
A      1  0.6197273749730  0.2963859483291  0.4246626688928 1.0
A      1  0.7242511371241  0.2988156283473  0.5877888060677 1.0
A      1  0.6104915007291  0.2995987712298  0.7522511626491 1.0
A      1  0.7226708636158  0.2993281618636  0.9166595802206 1.0
A      1  0.4435009932818  0.3995921889973  0.0824063737677 1.0
A      1  0.5683442159654  0.3998066188755  0.2321322960201 1.0
A      1  0.4427622593707  0.3993125585088  0.7534429605985 1.0
A      1  0.5550690119947  0.4003315342079  0.9160540124271 1.0
A      1  0.2736143908725  0.4993677639115  0.0822102725930 1.0
A      1  0.3781008079958  0.4993128282454  0.2448382193676 1.0
A      1  0.2728444987331  0.5014374130908  0.4179092851555 1.0
A      1  0.2753525758406  0.4997463405263  0.7535239797060 1.0
A      1  0.3872195761613  0.4999822135389  0.9185549350607 1.0
A      1  0.1087550282896  0.5997885966873  0.0849619158676 1.0
A      1  0.2182091967342  0.6010758674719  0.2514424994204 1.0
A      1  0.1086947507064  0.6002948584702  0.4188669739027 1.0
A      1  0.2208551762377  0.6003863796931  0.5858010199407 1.0
A      1  0.1096279288991  0.5998379680033  0.7520668307792 1.0
A      1  0.2204298774541  0.6004650461899  0.9184324093524 1.0
A      1  0.9434373455441  0.7000118893866  0.0852759396942 1.0
A      1  0.0539130590395  0.7004500160460  0.2520666981537 1.0
A      1  0.9433268753203  0.6999011495288  0.4190429251919 1.0
A      1  0.0539458581099  0.6996702269193  0.5856878267843 1.0
A      1  0.9434579229253  0.6997279218409  0.7521877969013 1.0
A      1  0.0542655369141  0.6998980325264  0.9186911970241 1.0
A      1  0.7761064499191  0.3992669129244  0.0844442331922 1.0
A      1  0.8893647024691  0.3989321319178  0.2512855458352 1.0
A      1  0.7825417478683  0.3973475325724  0.4188094890171 1.0
A      1  0.8893024298248  0.3996070940078  0.5858181113226 1.0
A      1  0.7766158107358  0.4003357201286  0.7515703141498 1.0
A      1  0.8881188348111  0.3995828763619  0.9183815321208 1.0
A      1  0.6124980862524  0.5034123466615  0.0778102607710 1.0
A      1  0.7259297092648  0.5008756022559  0.2505804190837 1.0
A      1  0.7205971909813  0.4993430791762  0.5857761683239 1.0
A      1  0.6078662999998  0.5035601745646  0.7472703163288 1.0
A      1  0.7218266069438  0.4999732023076  0.9156278000003 1.0
A      1  0.4433946814149  0.5995760351151  0.0843833897130 1.0
A      1  0.5573204847203  0.6024400316137  0.2474223472224 1.0
A      1  0.4429756525269  0.6017299098690  0.7549558258490 1.0
A      1  0.5542633378072  0.6010615864052  0.9173390758951 1.0
A      1  0.2764330484761  0.6992933508277  0.0858190878072 1.0
A      1  0.3875723277993  0.6986142327064  0.2526618764174 1.0
A      1  0.2747224313810  0.7009381049135  0.4191395091697 1.0
A      1  0.3882558039476  0.7014529515215  0.5872902741136 1.0
A      1  0.2764315606626  0.6999899519887  0.7525802160478 1.0
A      1  0.3871599063207  0.7005571352754  0.9198165590202 1.0
A      1  0.1101551850970  0.7995372176835  0.0855474617741 1.0
A      1  0.2210077861451  0.7999213911134  0.2522029604611 1.0
A      1  0.1093658731541  0.7997850095639  0.4190052780009 1.0
A      1  0.2205203797875  0.7997588274361  0.5860174837706 1.0
A      1  0.1099628267522  0.7996058456359  0.7523796732069 1.0
A      1  0.2208152318549  0.7998706490943  0.9191753021308 1.0
A      1  0.9437220585348  0.8993409230904  0.0856011786319 1.0
A      1  0.0543286676552  0.8993340327121  0.2522685924002 1.0
A      1  0.9426105986690  0.8985969722081  0.4191461538112 1.0
A      1  0.0535811895236  0.8990073520644  0.5857000393345 1.0
A      1  0.9434225780991  0.8993004197270  0.7521577758228 1.0
A      1  0.0543242300171  0.8994755216011  0.9189694789461 1.0
A      1  0.7776917688722  0.6005127975595  0.0846812099397 1.0
A      1  0.8891301555174  0.6002787583532  0.2518813326132 1.0
A      1  0.7790821728143  0.5998330738582  0.4190278153030 1.0
A      1  0.8875328409173  0.5994019828321  0.5856723724251 1.0
A      1  0.7771340231375  0.6003077398888  0.7519833742509 1.0
A      1  0.8882225770772  0.5997609471857  0.9184609294405 1.0
A      1  0.6107867265394  0.7015210591102  0.0842957794074 1.0
A      1  0.7217419608404  0.6999527144459  0.2528789888245 1.0
A      1  0.6071565579064  0.6936270001267  0.4223731558394 1.0
A      1  0.7168006001737  0.6972361164041  0.5867287309113 1.0
A      1  0.6116292345834  0.7027502102171  0.7557257629414 1.0
A      1  0.7219403929439  0.6999504991153  0.9194223226277 1.0
A      1  0.4433019235064  0.7995237819447  0.0865787777242 1.0
A      1  0.5545761431239  0.7992474387577  0.2533765606959 1.0
A      1  0.4427017124847  0.8002644312607  0.4190991695590 1.0
A      1  0.5540736162824  0.8011249593373  0.5858320585831 1.0
A      1  0.4436957604829  0.8003409609473  0.7532011215680 1.0
A      1  0.5539787405942  0.8007172946238  0.9198152566281 1.0
A      1  0.2767489321872  0.8994615130342  0.0857556277235 1.0
A      1  0.3875817829635  0.8994345869203  0.2524819623149 1.0
A      1  0.2762359093265  0.8994650161761  0.4192496503696 1.0
A      1  0.3871922645611  0.8995419195550  0.5861614890017 1.0
A      1  0.2766828266052  0.8995716284589  0.7527238988473 1.0
A      1  0.3874629328362  0.8998050951559  0.9196537045892 1.0
A      1  0.1102291904966  0.9992548982678  0.0855850123425 1.0
A      1  0.2211869222669  0.9990824920701  0.2522604157619 1.0
A      1  0.1096220346164  0.9985329594846  0.4189885313107 1.0
A      1  0.2202231732569  0.9987937894798  0.5860367038872 1.0
A      1  0.1098972890327  0.9991516585750  0.7524292052991 1.0
A      1  0.2208523390670  0.9993157269332  0.9192233386625 1.0
A      1  0.7771954903210  0.7999401022907  0.0858039560323 1.0
A      1  0.8875654190399  0.7996117514350  0.2525741216715 1.0
A      1  0.7751140395958  0.7980227585529  0.4198430872542 1.0
A      1  0.8863712908316  0.7985577763546  0.5856291945797 1.0
A      1  0.7772178305954  0.7999409836447  0.7522683231843 1.0
A      1  0.8878801331554  0.7997215760658  0.9188858011928 1.0
A      1  0.6101143979698  0.8995221987325  0.0860210324743 1.0
A      1  0.7211562947561  0.8990020905880  0.2524175935851 1.0
A      1  0.6098629535515  0.8979597514698  0.4191304120018 1.0
A      1  0.7208488305948  0.8989440967180  0.5859609516284 1.0
A      1  0.6102765653877  0.9004955795354  0.7525443791917 1.0
A      1  0.7210045584100  0.8995017998372  0.9190101937474 1.0
A      1  0.4433105911499  0.9996301191449  0.0861572212440 1.0
A      1  0.5544538235040  0.9983041909656  0.2524209542227 1.0
A      1  0.4431768737263  0.9984866266672  0.4192002663251 1.0
A      1  0.5543510747834  0.9994927325003  0.5854570821516 1.0
A      1  0.4434647572577  0.9992325020056  0.7529658029139 1.0
A      1  0.5542107626480  0.9994568271700  0.9188679851336 1.0
A      1  0.7771780629614  0.9988548272759  0.0853394438250 1.0
A      1  0.8878992086992  0.9986807370279  0.2522390235791 1.0
A      1  0.7764303482885  0.9978423909848  0.4190558356407 1.0
A      1  0.8874651082227  0.9988704242670  0.5856267264384 1.0
A      1  0.7769629831397  0.9992995324540  0.7521775447053 1.0
A      1  0.8877626480733  0.9991922988944  0.9187610819929 1.0
END
