TITL AB-20764-5019-123 0.0000000000 4458.8459578500 -1499.4222517708 0 0  183 (P1) n - 1
REM
REM Run started: at Fri Oct 6 15:23:45 BST 2023 in /home/michal/install/eddp/airss/examples/1.11
REM pp3 from code version ## 0.9.3 July 2022 commit b0220bf5cbf550a3b7
REM
REM
REM
REM Total runtime: s
REM
REM
REM ./AB.cell (a186c3e4acc5915692489c59fabd1559)
REM ## AIRSS Version 0.9.3 July 2022 commit b0220bf5cbf550a3b7
REM compiler GCC version 11.4.0
REM options -cpp -imultiarch x86_64-linux-gnu -mtune=generic -march=x86-64 -g -Og -fpre-include=/usr/include/finclude/math-vector-fortran.h
REM cmdline: airss.pl -pp3 max 100 -seed AB 
REM seed 1554406419 -804023972 1754421379 -2132467131 1241046336 -1560229778 -801013197 -641401439
REM
REM AB.pp (46f9ffe235eb1beff4ce53cde2d82919)
REM 
CELL 1.54180   16.99142   16.35000   16.05000   90.00000   90.00000   90.00000
LATT -1
SFAC A  B  
A      1  0.9440611733226  0.1004680351329  0.0851918923741 1.0
A      1  0.0547767311553  0.1012393239521  0.2519061327993 1.0
A      1  0.5180245232960  0.4694926197748  0.4115362647312 1.0
A      1  0.3914718398568  0.4975969520375  0.5775277870158 1.0
A      1  0.4305102520477  0.6240156101802  0.4182005845347 1.0
A      1  0.5567546518739  0.5972189531783  0.5776796251512 1.0
A      1  0.5571228785769  0.3993796982503  0.5924757692958 1.0
B      2  0.6535680229483  0.4474809633986  0.4698777987554 1.0
B      2  0.4687896874704  0.3371963429520  0.4713456548603 1.0
B      2  0.6446379076203  0.5492950618524  0.3841557004420 1.0
B      2  0.3880444998903  0.3948371163021  0.3851585433952 1.0
A      1  0.9433038767925  0.1006727033422  0.4185870800695 1.0
A      1  0.0534569205647  0.1011729560912  0.5857930272386 1.0
A      1  0.9433583307320  0.1011207780435  0.7520898977448 1.0
A      1  0.0547785781514  0.1010691994151  0.9189910531872 1.0
A      1  0.2770546249492  0.1009637162078  0.0849998249328 1.0
A      1  0.3873876082119  0.1001276474299  0.2498173442674 1.0
A      1  0.2753212853348  0.1000484218003  0.4188320919948 1.0
A      1  0.3870685828771  0.1007715452142  0.5854534235060 1.0
A      1  0.2769540300319  0.1012278622604  0.7526544233542 1.0
A      1  0.3880620077176  0.1006996314761  0.9187383797609 1.0
A      1  0.1107822339804  0.2008121803935  0.0856788668110 1.0
A      1  0.2221031579648  0.2011132182129  0.2523599121299 1.0
A      1  0.1097755123532  0.2000667128892  0.4189844500600 1.0
A      1  0.2189737543588  0.1996102282318  0.5872404276055 1.0
A      1  0.1096233675855  0.2008863379293  0.7530487845839 1.0
A      1  0.2214350412249  0.2008789513593  0.9196826049347 1.0
A      1  0.9447407608943  0.3004775680168  0.0849655300573 1.0
A      1  0.0566812369855  0.3011214948009  0.2520060165762 1.0
A      1  0.9465679345678  0.2998835891543  0.4184091579807 1.0
A      1  0.0553328816579  0.3013460926968  0.5859281137464 1.0
A      1  0.9441938044086  0.3011980788289  0.7522528032373 1.0
A      1  0.0555946329055  0.3013401349041  0.9191345581376 1.0
A      1  0.6110970395603  0.0996746668945  0.0843237495376 1.0
A      1  0.7220021286343  0.1000042881282  0.2513864073380 1.0
A      1  0.6106501067575  0.1006442073959  0.4178975808540 1.0
A      1  0.7206992807745  0.1024161012059  0.5846449735343 1.0
A      1  0.6103543501756  0.1008490482302  0.7507928821622 1.0
A      1  0.7217856142956  0.1009421403193  0.9178417911586 1.0
A      1  0.4443655808509  0.2008557444715  0.0845018683576 1.0
A      1  0.5556511613483  0.1985580329310  0.2499547772181 1.0
A      1  0.4414021113193  0.1954608469526  0.4147975584436 1.0
A      1  0.5528560772779  0.2024013176038  0.5830469124640 1.0
A      1  0.4441177732884  0.2003377950793  0.7531927041003 1.0
A      1  0.5551003945677  0.2000025911379  0.9179205026077 1.0
A      1  0.2775273416787  0.3009538481099  0.0858815715229 1.0
A      1  0.3898621780137  0.3000217045353  0.2514599848594 1.0
A      1  0.2746428594259  0.2972527165769  0.4221368353761 1.0
A      1  0.3821775500326  0.2977792896104  0.5930533829948 1.0
A      1  0.2751288879493  0.3009235085889  0.7551554725812 1.0
A      1  0.3884101754064  0.3007675058944  0.9189144097636 1.0
A      1  0.1114832875971  0.4011058557820  0.0860541894914 1.0
A      1  0.2240099325959  0.4009218309800  0.2536404201551 1.0
A      1  0.1116605400747  0.4010156140016  0.4190649298809 1.0
A      1  0.2213687785828  0.4016184541738  0.5860345756430 1.0
A      1  0.1105641037905  0.4015444017744  0.7527555284783 1.0
A      1  0.2221520743821  0.4017239754375  0.9196358199401 1.0
A      1  0.9448323977562  0.5010515060480  0.0855210961133 1.0
A      1  0.0569381316514  0.5012549658420  0.2521558912605 1.0
A      1  0.9469312903374  0.5011286782555  0.4190174726584 1.0
A      1  0.0564913719022  0.5016784579283  0.5860392695740 1.0
A      1  0.9443740076415  0.5014991405385  0.7528036749798 1.0
A      1  0.0555708675312  0.5012780659528  0.9191826952682 1.0
A      1  0.7782569584958  0.1997695014441  0.0844489416763 1.0
A      1  0.8894226943506  0.2007765071988  0.2516372407776 1.0
A      1  0.7782531335776  0.2002679469611  0.4179317855248 1.0
A      1  0.8880951415154  0.2018306590341  0.5850461706601 1.0
A      1  0.7774149703240  0.2011052099290  0.7509800968487 1.0
A      1  0.8887752948738  0.2010427941209  0.9182600811989 1.0
A      1  0.6121570414387  0.2987026110156  0.0814964111627 1.0
A      1  0.7239488863702  0.2991406032642  0.2500211022270 1.0
A      1  0.6125750588566  0.2986477219899  0.4147760284255 1.0
A      1  0.7222763308174  0.3035772571006  0.5831634014819 1.0
A      1  0.6115399511822  0.2997303562085  0.7530201668747 1.0
A      1  0.7227992120643  0.3006567854127  0.9180340405641 1.0
A      1  0.4435925969825  0.4011849395481  0.0837941845122 1.0
A      1  0.5583287217778  0.3957366274699  0.2419130921796 1.0
A      1  0.4434791281281  0.4008725530213  0.7529396020662 1.0
A      1  0.5554359605829  0.4007667752860  0.9181402775622 1.0
A      1  0.2779602572460  0.5014076309543  0.0864614451829 1.0
A      1  0.3904705522242  0.5013562920527  0.2544840911638 1.0
A      1  0.2763028921679  0.5036777227810  0.4187413634314 1.0
A      1  0.2783007139199  0.5011851223476  0.7506160393648 1.0
A      1  0.3885814628632  0.5014877948950  0.9181040371186 1.0
A      1  0.1110567617305  0.6012805828553  0.0855867068761 1.0
A      1  0.2225691023129  0.6020828952731  0.2521320437814 1.0
A      1  0.1099886069836  0.6018779521985  0.4190743092872 1.0
A      1  0.2232112354644  0.6018646861485  0.5853363336892 1.0
A      1  0.1111055713511  0.6014562699907  0.7522226670135 1.0
A      1  0.2219806469081  0.6008202410570  0.9185778435589 1.0
A      1  0.9441189731119  0.7009610419247  0.0860026001514 1.0
A      1  0.0552049495667  0.7013178794249  0.2522608735230 1.0
A      1  0.9446294639873  0.7020730441355  0.4192034141704 1.0
A      1  0.0561948683082  0.7020927951303  0.5858216142208 1.0
A      1  0.9447698497808  0.7020971813115  0.7530309828252 1.0
A      1  0.0553474030484  0.7011259636348  0.9191407689011 1.0
A      1  0.7779991186057  0.4003991503312  0.0848127841488 1.0
A      1  0.8913031561820  0.4006617110362  0.2502825809710 1.0
A      1  0.7855207219886  0.3989553335545  0.4150521815746 1.0
A      1  0.8903094379418  0.4015647230254  0.5855204020633 1.0
A      1  0.7782458709939  0.4005827003097  0.7532778779973 1.0
A      1  0.8892580669006  0.4011764634689  0.9190739704233 1.0
A      1  0.6112875362061  0.5014893074633  0.0838893601491 1.0
A      1  0.7229885283695  0.4986956810132  0.2518125298759 1.0
A      1  0.7282499181182  0.5050445506223  0.5930965491238 1.0
A      1  0.6115900314701  0.5017496815234  0.7531896824509 1.0
A      1  0.7224335954256  0.5009755275651  0.9190982864334 1.0
A      1  0.4441006943990  0.6010655665201  0.0856031244231 1.0
A      1  0.5541182836062  0.5994479574226  0.2542372524381 1.0
A      1  0.4446700992047  0.6001266564849  0.7487037384545 1.0
A      1  0.5548963356846  0.6012236342345  0.9181464040180 1.0
A      1  0.2767480611441  0.7015478684308  0.0839753416341 1.0
A      1  0.3862481877477  0.7046797859351  0.2480898196153 1.0
A      1  0.2690723803151  0.7076275990922  0.4185945941292 1.0
A      1  0.3869118170932  0.7038795668119  0.5884068144380 1.0
A      1  0.2769501209015  0.7014810752470  0.7528757272024 1.0
A      1  0.3886581545745  0.7006473218931  0.9178771349170 1.0
A      1  0.1101113538300  0.8013393737384  0.0851093962657 1.0
A      1  0.2199818927527  0.8029296249170  0.2508080296789 1.0
A      1  0.1073911669762  0.8037868389359  0.4188142586420 1.0
A      1  0.2205019892303  0.8029235034487  0.5864867237962 1.0
A      1  0.1103994974109  0.8017897592451  0.7526428742687 1.0
A      1  0.2215475804518  0.8012657464106  0.9186300064537 1.0
A      1  0.9434561843971  0.9007006731686  0.0853762538913 1.0
A      1  0.0537207183410  0.9016000228903  0.2517348198980 1.0
A      1  0.9422726303711  0.9017229575508  0.4188769579407 1.0
A      1  0.0537225994583  0.9019405192150  0.5859882644817 1.0
A      1  0.9434184542179  0.9015626581799  0.7524017207465 1.0
A      1  0.0546088282366  0.9011499151678  0.9188428980884 1.0
A      1  0.7777713977171  0.6006618867017  0.0861844372735 1.0
A      1  0.8891872999271  0.6004100105815  0.2527754179674 1.0
A      1  0.7826062156511  0.6010617547467  0.4223760225960 1.0
A      1  0.8917419628483  0.6026699826386  0.5872446688819 1.0
A      1  0.7789064043715  0.6031368565588  0.7551379042463 1.0
A      1  0.8890561588000  0.6012462857930  0.9199190166265 1.0
A      1  0.6104184928522  0.7004904930108  0.0863803739261 1.0
A      1  0.7213500503547  0.6988003126281  0.2539380618808 1.0
A      1  0.6088978676733  0.7033242846161  0.4186730547784 1.0
A      1  0.7219259771608  0.7021433386442  0.5857597140614 1.0
A      1  0.6103633785897  0.7003897778519  0.7504085436980 1.0
A      1  0.7213311692605  0.7011041905838  0.9195829589051 1.0
A      1  0.4440328703996  0.8015445988091  0.0837887094243 1.0
A      1  0.5540711906251  0.8005881700723  0.2518958966981 1.0
A      1  0.4424824831868  0.8106854499948  0.4183677071291 1.0
A      1  0.5539761176999  0.8007466177569  0.5850057924475 1.0
A      1  0.4439961306176  0.8014958960178  0.7526961213322 1.0
A      1  0.5553811825036  0.8006801417669  0.9182495072527 1.0
A      1  0.2770165463033  0.9014065123073  0.0846539656753 1.0
A      1  0.3870447062380  0.9024997123123  0.2504853392024 1.0
A      1  0.2751059870350  0.9035121125455  0.4185525719640 1.0
A      1  0.3871389772860  0.9025959200920  0.5861938426825 1.0
A      1  0.2769947398226  0.9015423981460  0.7525244307364 1.0
A      1  0.3881848793384  0.9010044173167  0.9183339004481 1.0
A      1  0.1102551638145  0.0009343302985  0.0851944106047 1.0
A      1  0.2203633473920  0.0016812150527  0.2514973884444 1.0
A      1  0.1088710970700  0.0015716984391  0.4188596414787 1.0
A      1  0.2201754674517  0.0014295101172  0.5860267853541 1.0
A      1  0.1100822624377  0.0013949916617  0.7524394769808 1.0
A      1  0.2212620589527  0.0010884763162  0.9187037778340 1.0
A      1  0.7769943398463  0.8001942548253  0.0860947124534 1.0
A      1  0.8878868262425  0.8004827872360  0.2524226742012 1.0
A      1  0.7768723326296  0.8008847960073  0.4190286489695 1.0
A      1  0.8882207396146  0.8016826842817  0.5858263504619 1.0
A      1  0.7770829845605  0.8016515995697  0.7524140575412 1.0
A      1  0.8881280393439  0.8009482465187  0.9192165623402 1.0
A      1  0.6106055917354  0.9003271166028  0.0850642134858 1.0
A      1  0.7213006284040  0.8999241710890  0.2520038125274 1.0
A      1  0.6108647530255  0.9020364949502  0.4185424151820 1.0
A      1  0.7210020153050  0.9016382985297  0.5852981880794 1.0
A      1  0.6103481218011  0.9008375378821  0.7514938788716 1.0
A      1  0.7216719553779  0.9009484426069  0.9186779147824 1.0
A      1  0.4442029057597  0.0009832877875  0.0842895597772 1.0
A      1  0.5546401370318  0.0000743109588  0.2515021399006 1.0
A      1  0.4431784659926  0.0026168491424  0.4180797583021 1.0
A      1  0.5542121497381  0.0014394764555  0.5847592725872 1.0
A      1  0.4437704836412  0.0011864640173  0.7520577787028 1.0
A      1  0.5551092903138  0.0005275414012  0.9179167970782 1.0
A      1  0.7772428448596  0.0001523139887  0.0850444654226 1.0
A      1  0.8878583309863  0.0008270760777  0.2517901549957 1.0
A      1  0.7767625144238  0.0009792115647  0.4185217762272 1.0
A      1  0.8871364550714  0.0017159864349  0.5854968088522 1.0
A      1  0.7767149168065  0.0013020156048  0.7517119891080 1.0
A      1  0.8881138617416  0.0010584670320  0.9186452573978 1.0
END
