TITL AB-20764-5019-571 0.0000000000 4458.8459578500 -1494.8120415183 0 0  183 (P1) n - 1
REM
REM Run started: at Fri Oct 6 15:40:34 BST 2023 in /home/michal/install/eddp/airss/examples/1.11
REM pp3 from code version ## 0.9.3 July 2022 commit b0220bf5cbf550a3b7
REM
REM
REM
REM Total runtime: s
REM
REM
REM ./AB.cell (a186c3e4acc5915692489c59fabd1559)
REM ## AIRSS Version 0.9.3 July 2022 commit b0220bf5cbf550a3b7
REM compiler GCC version 11.4.0
REM options -cpp -imultiarch x86_64-linux-gnu -mtune=generic -march=x86-64 -g -Og -fpre-include=/usr/include/finclude/math-vector-fortran.h
REM cmdline: airss.pl -pp3 max 100 -seed AB 
REM seed 766446078 -1540049989 -1324697929 -1787909451 329573736 1120133498 1578415989 235753607
REM
REM AB.pp (46f9ffe235eb1beff4ce53cde2d82919)
REM 
CELL 1.54180   16.99142   16.35000   16.05000   90.00000   90.00000   90.00000
LATT -1
SFAC A  B  
A      1  0.9424504543705  0.0981064312473  0.0804098783167 1.0
A      1  0.0536139185721  0.0978372386840  0.2473270936322 1.0
A      1  0.4442749854633  0.5969782230156  0.4137021111523 1.0
A      1  0.6070265048000  0.4996057391929  0.4135198947067 1.0
A      1  0.5464571846821  0.3928230438514  0.5711540115464 1.0
A      1  0.3845686343435  0.4890193378586  0.5712219888272 1.0
A      1  0.4405109231086  0.3953565768530  0.4078285486211 1.0
B      2  0.5222722144246  0.5443176919310  0.6255894836745 1.0
B      2  0.6653258588678  0.3978201082500  0.6632894626505 1.0
B      2  0.5770937491554  0.6358728231250  0.5588333886506 1.0
B      2  0.3300324365678  0.5988389144746  0.6634396370037 1.0
A      1  0.9432950204037  0.0980701645171  0.4135564844716 1.0
A      1  0.0538410215742  0.0973109085647  0.5807968552164 1.0
A      1  0.9419908989963  0.0982831528847  0.7475309163897 1.0
A      1  0.0529914454909  0.0980845941207  0.9143020399308 1.0
A      1  0.2754604265703  0.0978793474887  0.0812241666913 1.0
A      1  0.3864786705239  0.0977656331733  0.2473573765674 1.0
A      1  0.2756202284163  0.0978288455339  0.4142743460631 1.0
A      1  0.3862997924318  0.0964745093603  0.5806607146652 1.0
A      1  0.2750029983893  0.0975752497602  0.7473130719484 1.0
A      1  0.3859748948305  0.0974687196485  0.9141787991890 1.0
A      1  0.1089603523058  0.1979209398314  0.0811514816706 1.0
A      1  0.2196373712331  0.1975535711234  0.2477032872666 1.0
A      1  0.1083662600849  0.1981595843584  0.4142013956100 1.0
A      1  0.2186216130433  0.1966845886200  0.5806612252253 1.0
A      1  0.1086606211754  0.1974768474520  0.7475997558942 1.0
A      1  0.2199177212907  0.1972789856220  0.9144675959982 1.0
A      1  0.9424806481050  0.2976823827216  0.0817317377185 1.0
A      1  0.0531210959581  0.2978041942568  0.2480788400597 1.0
A      1  0.9409983518990  0.2988264665431  0.4147490248588 1.0
A      1  0.0518816780305  0.2977536169212  0.5806640658323 1.0
A      1  0.9432317540348  0.2972873402675  0.7476753730906 1.0
A      1  0.0534749114987  0.2971961635563  0.9148378365020 1.0
A      1  0.6092087067927  0.0976033686170  0.0807832121898 1.0
A      1  0.7200297125422  0.0978763234173  0.2462371642879 1.0
A      1  0.6097171372810  0.0983670189873  0.4135319059126 1.0
A      1  0.7208735380743  0.0959576642077  0.5800142258360 1.0
A      1  0.6089237699920  0.0958630037734  0.7475156627711 1.0
A      1  0.7197846587277  0.0983750722876  0.9135981374905 1.0
A      1  0.4417384114048  0.1977046763587  0.0807121851008 1.0
A      1  0.5530133290518  0.1977007561215  0.2465697165823 1.0
A      1  0.4423429009552  0.1972699349201  0.4138100870728 1.0
A      1  0.5534952583409  0.1966778676883  0.5812185340169 1.0
A      1  0.4406475628045  0.1964762742707  0.7476393876924 1.0
A      1  0.5520945291447  0.1958522923141  0.9168222721958 1.0
A      1  0.2754290130419  0.2973791936877  0.0809850655287 1.0
A      1  0.3858827189460  0.2968495702428  0.2460091266646 1.0
A      1  0.2744514047666  0.2976094242389  0.4139570718586 1.0
A      1  0.3840169906798  0.2935917310340  0.5803334214392 1.0
A      1  0.2751119815319  0.2957925125384  0.7477665422133 1.0
A      1  0.3867889850324  0.2981272087836  0.9132500836632 1.0
A      1  0.1081915434048  0.3978797589302  0.0814821972043 1.0
A      1  0.2195369714859  0.3973898789430  0.2469264087373 1.0
A      1  0.1077878736128  0.3981970975140  0.4141127825781 1.0
A      1  0.2177446503631  0.3968955641530  0.5814195816129 1.0
A      1  0.1074169576420  0.3966584884371  0.7480927169305 1.0
A      1  0.2190597405725  0.3958884171644  0.9172642373274 1.0
A      1  0.9423917647943  0.4986537852989  0.0813962414038 1.0
A      1  0.0530418586381  0.4977004495626  0.2470470457141 1.0
A      1  0.9405831594959  0.4983013328279  0.4139991791925 1.0
A      1  0.0496276722003  0.4965269987441  0.5803877931488 1.0
A      1  0.9441688613041  0.4994614133763  0.7482229531606 1.0
A      1  0.0545146323783  0.4983751231537  0.9144170822577 1.0
A      1  0.7758448841918  0.1978619796789  0.0806579066026 1.0
A      1  0.8873700674140  0.1979183481361  0.2467301307097 1.0
A      1  0.7771294878145  0.1963430943933  0.4103876934694 1.0
A      1  0.8881148388365  0.1968334793193  0.5803581234172 1.0
A      1  0.7748229007021  0.1992401099482  0.7463488461776 1.0
A      1  0.8863077663399  0.1983367625351  0.9138892462361 1.0
A      1  0.6089455279818  0.2976349231989  0.0812250134560 1.0
A      1  0.7204505273360  0.2981089655882  0.2467225229254 1.0
A      1  0.6091519874514  0.2968835428597  0.4107659229445 1.0
A      1  0.7230093661049  0.2895629255073  0.5726126122615 1.0
A      1  0.6044210250606  0.2910188363757  0.7544320897181 1.0
A      1  0.7199505646146  0.2980148074372  0.9158190363430 1.0
A      1  0.4419509608402  0.3975965146500  0.0812555123001 1.0
A      1  0.5536265983127  0.3982146168945  0.2464053314465 1.0
A      1  0.4432463687091  0.3999613462227  0.7446195167692 1.0
A      1  0.5529553447676  0.3978499859529  0.9162057277828 1.0
A      1  0.2750622520396  0.4978759761834  0.0815776773236 1.0
A      1  0.3864312328673  0.4983895468663  0.2465311228373 1.0
A      1  0.2737739597214  0.4974573665860  0.4108659101387 1.0
A      1  0.2719514489927  0.4904152807901  0.7546427776700 1.0
A      1  0.3867343815678  0.4975205420066  0.9164524103651 1.0
A      1  0.1086239567784  0.5983411560911  0.0810923970469 1.0
A      1  0.2196650336103  0.5984694578888  0.2471340257451 1.0
A      1  0.1060110248796  0.5981431097093  0.4108103104349 1.0
A      1  0.2107646415716  0.5958433189078  0.5728664221769 1.0
A      1  0.1105375767718  0.5982873617509  0.7465067524493 1.0
A      1  0.2201998242799  0.5980796821356  0.9161296501181 1.0
A      1  0.9423859094598  0.6985807638484  0.0801561233624 1.0
A      1  0.0532240108575  0.6988050169705  0.2467992659698 1.0
A      1  0.9422177864556  0.6992662152064  0.4134205563576 1.0
A      1  0.0519516126813  0.6988245244986  0.5805324202872 1.0
A      1  0.9425520300971  0.6985433904625  0.7473407987557 1.0
A      1  0.0538489253808  0.6982644304777  0.9138249066027 1.0
A      1  0.7760334049454  0.3980148232036  0.0819279200838 1.0
A      1  0.8865768543389  0.3981892111015  0.2478994172949 1.0
A      1  0.7738623130079  0.3996604723056  0.4140194605975 1.0
A      1  0.8818453438497  0.3992668903786  0.5823333493246 1.0
A      1  0.7833325150250  0.3988030565005  0.7561908490727 1.0
A      1  0.8895560950490  0.3981037989330  0.9176375925144 1.0
A      1  0.6092571651491  0.4978854825818  0.0821624479502 1.0
A      1  0.7201677482401  0.4987588407031  0.2474696750572 1.0
A      1  0.7150068279249  0.5122193862458  0.5747152520275 1.0
A      1  0.6086493252033  0.5039314958828  0.7582552518377 1.0
A      1  0.7216412794146  0.4983530444917  0.9175865584000 1.0
A      1  0.4419209940363  0.5982562849563  0.0823127430925 1.0
A      1  0.5537774927794  0.5988630989001  0.2467786148974 1.0
A      1  0.4467735510008  0.6009273010854  0.7587009571993 1.0
A      1  0.5544344955420  0.5998979212232  0.9203478576229 1.0
A      1  0.2752499031902  0.6985068814947  0.0823340511380 1.0
A      1  0.3871090548642  0.6983842971621  0.2477770032389 1.0
A      1  0.2774884476163  0.6973273955080  0.4144477403575 1.0
A      1  0.4008245561049  0.7003917969164  0.5748451310078 1.0
A      1  0.2720932795992  0.7055518364612  0.7564032826832 1.0
A      1  0.3860151065250  0.6995445818069  0.9179463843720 1.0
A      1  0.1084903159884  0.7984735847968  0.0817127997164 1.0
A      1  0.2202993939700  0.7981644850279  0.2482838442305 1.0
A      1  0.1102839918958  0.7975646206764  0.4148126925116 1.0
A      1  0.2233323458517  0.7946952993224  0.5824100197074 1.0
A      1  0.1076474270932  0.7995155769163  0.7477229654155 1.0
A      1  0.2185010774942  0.8005055762854  0.9179163047463 1.0
A      1  0.9423727313069  0.8984727402777  0.0805858298120 1.0
A      1  0.0537591497397  0.8982194601008  0.2477636320651 1.0
A      1  0.9436006188035  0.8985130392044  0.4136839836367 1.0
A      1  0.0549701678648  0.8976815605904  0.5806297967246 1.0
A      1  0.9422312164270  0.8987600860495  0.7472346692289 1.0
A      1  0.0526691969828  0.8986356144230  0.9144484710925 1.0
A      1  0.7759288143645  0.5988679340316  0.0809669877204 1.0
A      1  0.8873733252301  0.5986204848999  0.2467197362089 1.0
A      1  0.7762673951053  0.6009549184286  0.4108751300450 1.0
A      1  0.8862352954103  0.5995000297466  0.5801508717839 1.0
A      1  0.7763725154700  0.5983014103246  0.7468701970135 1.0
A      1  0.8872597099558  0.5983114751056  0.9141324000096 1.0
A      1  0.6096971993318  0.6993150536347  0.0814296309056 1.0
A      1  0.7208094072892  0.6993172097701  0.2459638603416 1.0
A      1  0.6101628527840  0.7001025881955  0.4112610278975 1.0
A      1  0.7222767397490  0.7039319886571  0.5788245432828 1.0
A      1  0.6094310683671  0.6985417565462  0.7422105638546 1.0
A      1  0.7200994972605  0.6983048000481  0.9127494603556 1.0
A      1  0.4427288830223  0.7986885255794  0.0812184478949 1.0
A      1  0.5540215339604  0.7991912607872  0.2461444255305 1.0
A      1  0.4442322579023  0.8000671820713  0.4111175142437 1.0
A      1  0.5575269528717  0.8017492836200  0.5786718457732 1.0
A      1  0.4420463204928  0.7985641745732  0.7469341141295 1.0
A      1  0.5534830283432  0.7978440964230  0.9128441253547 1.0
A      1  0.2758224153090  0.8985779604624  0.0818430628971 1.0
A      1  0.3867117603404  0.8985942209642  0.2470268625465 1.0
A      1  0.2763660904056  0.8975468890549  0.4146078289132 1.0
A      1  0.3877227549803  0.8979622541266  0.5803706343474 1.0
A      1  0.2752790364256  0.9001921004850  0.7480774691820 1.0
A      1  0.3863093285192  0.8981256809957  0.9142935044404 1.0
A      1  0.1089783065952  0.9980983987242  0.0810488490608 1.0
A      1  0.2201122246905  0.9979175648274  0.2479220510491 1.0
A      1  0.1096750861145  0.9979869902151  0.4141248255716 1.0
A      1  0.2203472343629  0.9966153446359  0.5807387247170 1.0
A      1  0.1085017000416  0.9984514274684  0.7477077993118 1.0
A      1  0.2194803793016  0.9985553507806  0.9147235259084 1.0
A      1  0.7760396484132  0.7986333473245  0.0795767884972 1.0
A      1  0.8871293748757  0.7987042582570  0.2465450217065 1.0
A      1  0.7767652270743  0.8001504621768  0.4124886449362 1.0
A      1  0.8879752311548  0.7996197508262  0.5803303569937 1.0
A      1  0.7762644080686  0.7987905215788  0.7471007116266 1.0
A      1  0.8869170358785  0.7983073630280  0.9136483152341 1.0
A      1  0.6092567917465  0.8984172989072  0.0798128885899 1.0
A      1  0.7205021131431  0.8987315308478  0.2459971957634 1.0
A      1  0.6105163901248  0.8997874225109  0.4126503319131 1.0
A      1  0.7219385097325  0.9001572353097  0.5801517417785 1.0
A      1  0.6095608898251  0.8979106681660  0.7469029809139 1.0
A      1  0.7201354572215  0.8983419560188  0.9134391122998 1.0
A      1  0.4424161463780  0.9982716038013  0.0805381175431 1.0
A      1  0.5533643499679  0.9983304420696  0.2468548950842 1.0
A      1  0.4428133683999  0.9984398004102  0.4136731952860 1.0
A      1  0.5536813341043  0.9986028459056  0.5801306688126 1.0
A      1  0.4423863650167  0.9976018043607  0.7473924052933 1.0
A      1  0.5531187296207  0.9972722152783  0.9139351101388 1.0
A      1  0.7759134643691  0.9983031844342  0.0799370488000 1.0
A      1  0.8871123972748  0.9983201678343  0.2468527867108 1.0
A      1  0.7769654976234  0.9984137211165  0.4129110646999 1.0
A      1  0.8881677329544  0.9981633675589  0.5802802494031 1.0
A      1  0.7761617322334  0.9986488519066  0.7473409862986 1.0
A      1  0.8865019438439  0.9983605681975  0.9139292411018 1.0
END
