TITL AB-20764-5019-224 0.0000000000 4458.8459578500 -1495.8845682450 0 0  183 (P1) n - 1
REM
REM Run started: at Fri Oct 6 15:27:33 BST 2023 in /home/michal/install/eddp/airss/examples/1.11
REM pp3 from code version ## 0.9.3 July 2022 commit b0220bf5cbf550a3b7
REM
REM
REM
REM Total runtime: s
REM
REM
REM ./AB.cell (a186c3e4acc5915692489c59fabd1559)
REM ## AIRSS Version 0.9.3 July 2022 commit b0220bf5cbf550a3b7
REM compiler GCC version 11.4.0
REM options -cpp -imultiarch x86_64-linux-gnu -mtune=generic -march=x86-64 -g -Og -fpre-include=/usr/include/finclude/math-vector-fortran.h
REM cmdline: airss.pl -pp3 max 100 -seed AB 
REM seed -26686460 -1488435765 -264609491 824790731 -2106576067 1768527653 2077662502 -1047383022
REM
REM AB.pp (46f9ffe235eb1beff4ce53cde2d82919)
REM 
CELL 1.54180   16.99142   16.35000   16.05000   90.00000   90.00000   90.00000
LATT -1
SFAC A  B  
A      1  0.9443987041710  0.0986189684723  0.0825833801430 1.0
A      1  0.0552848837418  0.0989228102541  0.2491170529388 1.0
A      1  0.5695298667935  0.5827269407588  0.5491953863060 1.0
A      1  0.5626996990006  0.3977653571682  0.5740203030185 1.0
A      1  0.3928957378121  0.5014209367074  0.5847406060974 1.0
A      1  0.4378665787425  0.6036370148936  0.4118152090083 1.0
A      1  0.4450050469420  0.4018767357240  0.4154766800218 1.0
B      2  0.5090667263071  0.6794131391087  0.6530421186841 1.0
B      2  0.5605069193881  0.5102135879006  0.3781659292499 1.0
B      2  0.4994253874826  0.2952661569252  0.6679046591912 1.0
B      2  0.6503687868054  0.4679045333624  0.4502966482792 1.0
A      1  0.9447897747585  0.0978380744350  0.4157438355690 1.0
A      1  0.0558426186812  0.0981849464573  0.5825872775779 1.0
A      1  0.9451261516514  0.0978716685271  0.7493626826680 1.0
A      1  0.0555475802399  0.0983038065060  0.9159976006594 1.0
A      1  0.2767982605344  0.0986829076694  0.0834320593172 1.0
A      1  0.3884523141494  0.0998255842374  0.2491516139548 1.0
A      1  0.2782547591101  0.0995420573795  0.4160883983010 1.0
A      1  0.3900063591593  0.1007545735851  0.5835021996949 1.0
A      1  0.2756057038396  0.0962263121480  0.7495915627205 1.0
A      1  0.3870682767638  0.0958457709783  0.9197515164709 1.0
A      1  0.1106263145530  0.1986803857529  0.0825740659685 1.0
A      1  0.2216941000904  0.1989859652413  0.2488513887862 1.0
A      1  0.1111820145636  0.1981243418285  0.4156373899840 1.0
A      1  0.2211046986336  0.1979794243687  0.5824039912473 1.0
A      1  0.1111269663943  0.1979880137196  0.7496497739111 1.0
A      1  0.2221572058781  0.1980406003800  0.9160667498917 1.0
A      1  0.9440510468046  0.2987429164849  0.0831590007621 1.0
A      1  0.0555652442706  0.2988809807666  0.2492073676051 1.0
A      1  0.9461956369549  0.2972638245432  0.4159454055072 1.0
A      1  0.0567139404512  0.2979574087145  0.5828241608494 1.0
A      1  0.9455070697131  0.2977548657205  0.7502502451804 1.0
A      1  0.0557084988865  0.2982680299101  0.9165161130120 1.0
A      1  0.6111328182365  0.0993202892492  0.0817813928410 1.0
A      1  0.7227650291343  0.0986267851218  0.2477731443575 1.0
A      1  0.6128303824984  0.0982494346482  0.4114110502122 1.0
A      1  0.7249171475608  0.0969029016889  0.5818183791239 1.0
A      1  0.6106543021580  0.1002422359384  0.7474846793503 1.0
A      1  0.7219752415422  0.0989809096619  0.9152820864074 1.0
A      1  0.4440364936938  0.1987690958532  0.0833609474569 1.0
A      1  0.5555931296626  0.1997508585133  0.2481465450586 1.0
A      1  0.4451267111462  0.2006163786294  0.4143840349119 1.0
A      1  0.5615454494910  0.1924668087847  0.5734830785788 1.0
A      1  0.4390687156395  0.1894763897534  0.7584462105613 1.0
A      1  0.5555895723375  0.1992093518605  0.9171252388594 1.0
A      1  0.2769747062208  0.2989362487466  0.0832007965741 1.0
A      1  0.3883703854199  0.2999020003097  0.2493097031001 1.0
A      1  0.2756703715527  0.2994515647118  0.4131313572964 1.0
A      1  0.3811935064734  0.3007274562143  0.5754560666708 1.0
A      1  0.2777167998491  0.2975806754086  0.7486862716746 1.0
A      1  0.3880705971038  0.2978261760485  0.9184896277998 1.0
A      1  0.1102769686258  0.3987557180804  0.0828446022569 1.0
A      1  0.2212368132620  0.3996443680198  0.2491850394758 1.0
A      1  0.1102106600614  0.3990936952392  0.4159951371295 1.0
A      1  0.2208482212908  0.4001392282430  0.5824457781522 1.0
A      1  0.1104310042797  0.3978963590965  0.7496105651757 1.0
A      1  0.2216410046249  0.3979580836814  0.9161821268853 1.0
A      1  0.9441975132471  0.4989852186571  0.0835918337964 1.0
A      1  0.0545726116612  0.4990288123182  0.2496395233077 1.0
A      1  0.9436909829633  0.4988256497515  0.4167903821347 1.0
A      1  0.0554858913804  0.4989103241985  0.5830057864192 1.0
A      1  0.9451904604912  0.4986408830786  0.7499959094149 1.0
A      1  0.0557690689187  0.4985389654174  0.9163528668169 1.0
A      1  0.7781371669195  0.1985735778084  0.0829880824164 1.0
A      1  0.8892521072457  0.1986454209678  0.2494370153440 1.0
A      1  0.7785589310197  0.1973852665720  0.4156220696416 1.0
A      1  0.8904858359118  0.1977621711379  0.5825617182483 1.0
A      1  0.7802655208879  0.1973484115459  0.7498280642677 1.0
A      1  0.8895917919912  0.1982841743814  0.9164973791032 1.0
A      1  0.6109001071588  0.2995423923005  0.0831276836846 1.0
A      1  0.7229625307398  0.2984125980446  0.2484996693592 1.0
A      1  0.6136063587903  0.3015593944469  0.4120642546753 1.0
A      1  0.7248887435640  0.2967426442419  0.5835870506637 1.0
A      1  0.6203162348753  0.3002479408410  0.7563633954470 1.0
A      1  0.7245504332699  0.2988172265405  0.9198361963955 1.0
A      1  0.4440875280345  0.3989791442546  0.0839017215828 1.0
A      1  0.5546432895797  0.4003272617581  0.2494923358827 1.0
A      1  0.4389284224965  0.4032362751563  0.7573378028813 1.0
A      1  0.5552684495097  0.3996686411792  0.9168267604833 1.0
A      1  0.2758884420382  0.4990263839660  0.0838414279365 1.0
A      1  0.3877583083160  0.5000484973620  0.2487670219750 1.0
A      1  0.2768084089066  0.4992039024431  0.4166821327259 1.0
A      1  0.2738499223356  0.4984602450095  0.7494660221521 1.0
A      1  0.3860959481585  0.4984376928071  0.9216317470078 1.0
A      1  0.1100226432849  0.5989544693301  0.0828493113430 1.0
A      1  0.2208696286837  0.5993496741791  0.2492584128415 1.0
A      1  0.1094296489375  0.5988094880177  0.4159331583148 1.0
A      1  0.2207829174284  0.5987957093207  0.5821300379005 1.0
A      1  0.1100896040885  0.5990572814233  0.7494106571410 1.0
A      1  0.2214193044251  0.5989248914841  0.9160052281753 1.0
A      1  0.9433721527985  0.6985434217448  0.0833815246703 1.0
A      1  0.0541510331516  0.6987588591387  0.2494259916388 1.0
A      1  0.9421580057310  0.6977945443837  0.4159446054736 1.0
A      1  0.0549518697027  0.6990400986927  0.5823517930959 1.0
A      1  0.9446767309454  0.6988006224830  0.7498212935742 1.0
A      1  0.0550796476189  0.6986176824618  0.9163748107231 1.0
A      1  0.7774163236540  0.4000018453608  0.0844711116998 1.0
A      1  0.8887969435949  0.3987779046505  0.2495312596594 1.0
A      1  0.7828233606571  0.3950199953660  0.4166470838331 1.0
A      1  0.8925334738074  0.3967186076140  0.5837775291645 1.0
A      1  0.7811130194717  0.3984826392967  0.7522710330372 1.0
A      1  0.8897951024269  0.3988702936798  0.9176237172172 1.0
A      1  0.6107714934664  0.4994390483321  0.0830269446000 1.0
A      1  0.7180215380623  0.4982171220889  0.2549181845674 1.0
A      1  0.7310726845514  0.4952904881781  0.5882729097809 1.0
A      1  0.6079532493254  0.5011875857237  0.7437884862032 1.0
A      1  0.7213391841456  0.4987597852197  0.9155090280354 1.0
A      1  0.4431408288410  0.5998424404269  0.0823729212143 1.0
A      1  0.5534676659557  0.6024713359445  0.2448599140657 1.0
A      1  0.4373086368726  0.5953931879091  0.7589343304114 1.0
A      1  0.5550771682454  0.5987984259261  0.9167186249038 1.0
A      1  0.2760853747535  0.6990992807007  0.0823176905320 1.0
A      1  0.3865815087842  0.7014140286736  0.2470148960406 1.0
A      1  0.2733156787985  0.7006699750709  0.4132520506824 1.0
A      1  0.3810289631734  0.7013277349792  0.5764496613676 1.0
A      1  0.2763751162142  0.6991224844652  0.7485076772325 1.0
A      1  0.3873980423897  0.7001296727101  0.9174091219944 1.0
A      1  0.1099206955841  0.7988258791066  0.0824645295439 1.0
A      1  0.2203818407482  0.8001665169906  0.2482374669342 1.0
A      1  0.1088354122523  0.7991385198729  0.4153057721371 1.0
A      1  0.2194538233273  0.8003177987017  0.5817844797371 1.0
A      1  0.1103504615968  0.7986288689084  0.7493184357585 1.0
A      1  0.2211189172847  0.7987260737567  0.9157087373506 1.0
A      1  0.9440431168120  0.8988329578474  0.0825201568921 1.0
A      1  0.0546675606873  0.8992245335855  0.2490421334410 1.0
A      1  0.9437422265489  0.8981880978175  0.4156799084364 1.0
A      1  0.0548655114001  0.8989728926893  0.5823440910381 1.0
A      1  0.9445877307901  0.8986790396256  0.7492573547608 1.0
A      1  0.0549845456097  0.8986576025397  0.9159810963294 1.0
A      1  0.7770861567337  0.5979452456179  0.0841194002983 1.0
A      1  0.8866774953181  0.5979829303826  0.2509388317971 1.0
A      1  0.7715116115930  0.5953578304577  0.4189330808941 1.0
A      1  0.8899039761744  0.5992561244434  0.5831188491987 1.0
A      1  0.7796836525985  0.5986728117755  0.7512585718594 1.0
A      1  0.8892897787458  0.5982579237682  0.9171647771643 1.0
A      1  0.6108381974613  0.7001298453700  0.0811561325659 1.0
A      1  0.7223552803694  0.6991078890633  0.2475134707707 1.0
A      1  0.6101559133580  0.7026560405071  0.4072108254062 1.0
A      1  0.7209076353119  0.6982498586801  0.5838824209840 1.0
A      1  0.6184161526692  0.7001409084061  0.7563725883844 1.0
A      1  0.7243051258069  0.6987777191324  0.9189154658162 1.0
A      1  0.4436200607940  0.7997088458556  0.0816893515161 1.0
A      1  0.5542152507908  0.8016280829540  0.2456729922192 1.0
A      1  0.4432374334685  0.8013364899295  0.4131000117280 1.0
A      1  0.5581415234816  0.8035267128684  0.5749950679551 1.0
A      1  0.4450396903447  0.7967890199256  0.7475807418006 1.0
A      1  0.5549398923576  0.7995877060649  0.9157319486819 1.0
A      1  0.2770706713112  0.8989652215415  0.0820849798635 1.0
A      1  0.3875120185069  0.9006605089539  0.2484509491846 1.0
A      1  0.2769414344552  0.8995744112818  0.4153671442638 1.0
A      1  0.3886497502025  0.8995149193471  0.5815150286111 1.0
A      1  0.2774709263845  0.8975631438843  0.7486838672072 1.0
A      1  0.3882148330188  0.8981365788266  0.9151536584712 1.0
A      1  0.1105719263332  0.9986336511226  0.0826888806676 1.0
A      1  0.2214431702066  0.9995477379382  0.2493584572144 1.0
A      1  0.1109135054685  0.9986669136654  0.4158232592020 1.0
A      1  0.2224253783013  0.9990321870880  0.5821627126906 1.0
A      1  0.1106807363281  0.9977496037884  0.7490579784006 1.0
A      1  0.2211623033058  0.9978489827791  0.9160798861747 1.0
A      1  0.7778384791419  0.7994821056477  0.0825849754257 1.0
A      1  0.8884391016827  0.7988451068842  0.2493152166124 1.0
A      1  0.7770650389479  0.7976159684035  0.4156709037695 1.0
A      1  0.8887286027555  0.7983432867706  0.5824550643680 1.0
A      1  0.7798090179574  0.7996235644392  0.7494625617877 1.0
A      1  0.8892845048393  0.7988298496521  0.9163299101704 1.0
A      1  0.6112459886409  0.8999035021407  0.0808861843863 1.0
A      1  0.7221756155677  0.8990123521919  0.2479730723111 1.0
A      1  0.6117404108216  0.9010302117189  0.4122094052588 1.0
A      1  0.7236964559928  0.8986806610426  0.5815716740402 1.0
A      1  0.6114691340506  0.8985534099726  0.7475317915421 1.0
A      1  0.7219969409535  0.8986386962285  0.9150729468959 1.0
A      1  0.4443370529843  0.9985715913899  0.0826074964864 1.0
A      1  0.5549524413079  0.0000034746424  0.2472052748833 1.0
A      1  0.4446497702779  0.0005175832947  0.4155011375184 1.0
A      1  0.5563897159908  0.9984785614343  0.5810540286307 1.0
A      1  0.4442874374048  0.9953971136636  0.7486589405546 1.0
A      1  0.5552185010951  0.9993853846543  0.9144684324041 1.0
A      1  0.7777772398135  0.9990078917598  0.0815860252676 1.0
A      1  0.8887909543939  0.9987905491674  0.2486831100416 1.0
A      1  0.7786376708566  0.9979706872088  0.4148153924467 1.0
A      1  0.8897453673971  0.9981402214604  0.5825002337575 1.0
A      1  0.7777397740245  0.9986255207608  0.7490497724869 1.0
A      1  0.8886406997295  0.9986612833202  0.9156696682176 1.0
END
