TITL AB-20764-5019-391 0.0000000000 4458.8459578500 -1496.1131670591 0 0  183 (P1) n - 1
REM
REM Run started: at Fri Oct 6 15:34:01 BST 2023 in /home/michal/install/eddp/airss/examples/1.11
REM pp3 from code version ## 0.9.3 July 2022 commit b0220bf5cbf550a3b7
REM
REM
REM
REM Total runtime: s
REM
REM
REM ./AB.cell (a186c3e4acc5915692489c59fabd1559)
REM ## AIRSS Version 0.9.3 July 2022 commit b0220bf5cbf550a3b7
REM compiler GCC version 11.4.0
REM options -cpp -imultiarch x86_64-linux-gnu -mtune=generic -march=x86-64 -g -Og -fpre-include=/usr/include/finclude/math-vector-fortran.h
REM cmdline: airss.pl -pp3 max 100 -seed AB 
REM seed -864852320 -531108044 1302745758 -594171416 -1336195356 1410309618 -1939841480 1034350243
REM
REM AB.pp (46f9ffe235eb1beff4ce53cde2d82919)
REM 
CELL 1.54180   16.99142   16.35000   16.05000   90.00000   90.00000   90.00000
LATT -1
SFAC A  B  
A      1  0.9449495600381  0.0992673478728  0.0816766788361 1.0
A      1  0.0556880395678  0.0988094034633  0.2482950642751 1.0
A      1  0.5535824112352  0.3930318368913  0.5907565181884 1.0
A      1  0.4418587346325  0.3962651236037  0.4194052820998 1.0
A      1  0.5461082013956  0.5949044322760  0.5713775851912 1.0
A      1  0.4648597602355  0.5885765257574  0.3987811684400 1.0
A      1  0.3889645833718  0.4880976574560  0.5912496106841 1.0
B      2  0.6364119843576  0.5467177417875  0.3699149390268 1.0
B      2  0.5825787726712  0.4679601629171  0.4506756536898 1.0
B      2  0.6652867428676  0.5974753921183  0.6637219391204 1.0
B      2  0.3469268769774  0.5986879742036  0.4923612328195 1.0
A      1  0.9444865395525  0.0995188767144  0.4147900508544 1.0
A      1  0.0554030683519  0.0986791995441  0.5818276442847 1.0
A      1  0.9448029848657  0.0992356228369  0.7485079477339 1.0
A      1  0.0555833404245  0.0988834025173  0.9152616211403 1.0
A      1  0.2782351464419  0.0988424739132  0.0824869229792 1.0
A      1  0.3893425065587  0.0988356560677  0.2498025107163 1.0
A      1  0.2781457783588  0.0983083036291  0.4159524079837 1.0
A      1  0.3886176400310  0.0975692948795  0.5827745115482 1.0
A      1  0.2776874889250  0.0987124601362  0.7492092286747 1.0
A      1  0.3886860167985  0.0987053547652  0.9168377718341 1.0
A      1  0.1115228626551  0.1988526536469  0.0817867829531 1.0
A      1  0.2224584784628  0.1979858003365  0.2487975745467 1.0
A      1  0.1106374165936  0.1983579439163  0.4151228310977 1.0
A      1  0.2209926785084  0.1976554414674  0.5824746712740 1.0
A      1  0.1106536552144  0.1987838379744  0.7486506456472 1.0
A      1  0.2218510594420  0.1983850175463  0.9156996676305 1.0
A      1  0.9449789797121  0.2986984595218  0.0808607185345 1.0
A      1  0.0554995062833  0.2979809096011  0.2479391564317 1.0
A      1  0.9437790153055  0.2986974815351  0.4144817519918 1.0
A      1  0.0547366641693  0.2985292771867  0.5817010249256 1.0
A      1  0.9438931539393  0.2992687501823  0.7477746373901 1.0
A      1  0.0555622436784  0.2987665155522  0.9146417211106 1.0
A      1  0.6115795108502  0.0997351095004  0.0833964477040 1.0
A      1  0.7223876631442  0.0995724806721  0.2486524233140 1.0
A      1  0.6115077588710  0.0999568501063  0.4160235172710 1.0
A      1  0.7226942642041  0.0988376748204  0.5824391250317 1.0
A      1  0.6118667114571  0.0983598926149  0.7496839553200 1.0
A      1  0.7225220418541  0.0992471087691  0.9156105208860 1.0
A      1  0.4449247574226  0.1985858215502  0.0840372855317 1.0
A      1  0.5559116361799  0.2011835684352  0.2508326112364 1.0
A      1  0.4448247830672  0.1976909675034  0.4165870845362 1.0
A      1  0.5553522540232  0.1966430462061  0.5833552368694 1.0
A      1  0.4444563197070  0.1973115657492  0.7506741943475 1.0
A      1  0.5555398676483  0.1981973342248  0.9176667525483 1.0
A      1  0.2782073200248  0.2982666525489  0.0826549110038 1.0
A      1  0.3895813470802  0.2990990824037  0.2503889702693 1.0
A      1  0.2767509346969  0.2960982528311  0.4156956580738 1.0
A      1  0.3873261389136  0.2937844563669  0.5840584671263 1.0
A      1  0.2768782450296  0.2979763419317  0.7494196601214 1.0
A      1  0.3881407539065  0.2973016106224  0.9182547386022 1.0
A      1  0.1110298302839  0.3985507046607  0.0812602574350 1.0
A      1  0.2212286959664  0.3965823678189  0.2464441479117 1.0
A      1  0.1092095903607  0.3973170202540  0.4146587824827 1.0
A      1  0.2210755660540  0.3976969707303  0.5815174614112 1.0
A      1  0.1112703974681  0.3984179224206  0.7482677478298 1.0
A      1  0.2224375615949  0.3980890864672  0.9157339825330 1.0
A      1  0.9452754390259  0.4987807438486  0.0814251694233 1.0
A      1  0.0565383083959  0.4986831426400  0.2482425240380 1.0
A      1  0.9443844987470  0.4989751020014  0.4143344132893 1.0
A      1  0.0548123371082  0.4985370135240  0.5812909937217 1.0
A      1  0.9462135649551  0.4981382425473  0.7480177729296 1.0
A      1  0.0567103128653  0.4985863132175  0.9150150956906 1.0
A      1  0.7782297304201  0.1991374684438  0.0816049442172 1.0
A      1  0.8888656923195  0.1989956283961  0.2480397936111 1.0
A      1  0.7773905949090  0.1995245850957  0.4149131994941 1.0
A      1  0.8889938445418  0.1986767410851  0.5815370012354 1.0
A      1  0.7785820644143  0.1990534415310  0.7490057123978 1.0
A      1  0.8891777974828  0.1990653790257  0.9149878589462 1.0
A      1  0.6114429829724  0.2993198129883  0.0847560892915 1.0
A      1  0.7222683671792  0.2989124915228  0.2475915590556 1.0
A      1  0.6106930005294  0.3021894493621  0.4183479323578 1.0
A      1  0.7221887865989  0.2963732047154  0.5822355250020 1.0
A      1  0.6116920436434  0.2949320242158  0.7518793705151 1.0
A      1  0.7226564914731  0.2993459872472  0.9155009099479 1.0
A      1  0.4454094151140  0.3984144323913  0.0843768498284 1.0
A      1  0.5575934489618  0.4054255945428  0.2561922580045 1.0
A      1  0.4426046036495  0.3944148544501  0.7548504817896 1.0
A      1  0.5548744600028  0.3962854155239  0.9197233143948 1.0
A      1  0.2775532801718  0.4983435854020  0.0812234988685 1.0
A      1  0.3877765927254  0.4975967209740  0.2458437590495 1.0
A      1  0.2737518374223  0.4922044543357  0.4095968804977 1.0
A      1  0.2769702579837  0.4984405746241  0.7509482938643 1.0
A      1  0.3893992562286  0.4984338325201  0.9164701283296 1.0
A      1  0.1112558179854  0.5990177185653  0.0815875419540 1.0
A      1  0.2223658356799  0.5986050567833  0.2471252701353 1.0
A      1  0.1115012388331  0.5985953820445  0.4151581616769 1.0
A      1  0.2209969598469  0.5981691917707  0.5838040514131 1.0
A      1  0.1112809894238  0.5988037417636  0.7489869180334 1.0
A      1  0.2227981315093  0.5989260706151  0.9160180627173 1.0
A      1  0.9456082688245  0.6998804051564  0.0816817170532 1.0
A      1  0.0568602595268  0.6992860491880  0.2484805369203 1.0
A      1  0.9451949696491  0.6993565525087  0.4150091431110 1.0
A      1  0.0557631204882  0.6985381166109  0.5814728305818 1.0
A      1  0.9466585284310  0.6999551441519  0.7481394481724 1.0
A      1  0.0569236155636  0.6993712401200  0.9150519320238 1.0
A      1  0.7791784106522  0.3985333665887  0.0805407185887 1.0
A      1  0.8906739657427  0.3986434770009  0.2468061732934 1.0
A      1  0.7773963374689  0.3985164299322  0.4088583414624 1.0
A      1  0.8876997224255  0.3986595956218  0.5800239841394 1.0
A      1  0.7764163101540  0.4007862693650  0.7455611708829 1.0
A      1  0.8892142845976  0.3992515588156  0.9137599951388 1.0
A      1  0.6126497698336  0.4980720197375  0.0803160881444 1.0
A      1  0.7259633354801  0.4993067182127  0.2441590365229 1.0
A      1  0.7177819133864  0.4914333291944  0.5657503274652 1.0
A      1  0.6063731563959  0.4909589304609  0.7567914900009 1.0
A      1  0.7233050898480  0.4991253840657  0.9155168996309 1.0
A      1  0.4443479106811  0.5989457891643  0.0804589055345 1.0
A      1  0.5605487621591  0.6027846970277  0.2369944337589 1.0
A      1  0.4455847324089  0.5982172498945  0.7493992459456 1.0
A      1  0.5561351531695  0.5992537054488  0.9165718035294 1.0
A      1  0.2781702256209  0.6990509318595  0.0817401875199 1.0
A      1  0.3897237045588  0.6979681800587  0.2482665272601 1.0
A      1  0.2734867091538  0.7044013263079  0.4094970603677 1.0
A      1  0.3911989027732  0.7073058957138  0.5914255312044 1.0
A      1  0.2776058689984  0.6987616932858  0.7505131034524 1.0
A      1  0.3896192961954  0.6993126430198  0.9156613650966 1.0
A      1  0.1115113650327  0.7993627826590  0.0813118372754 1.0
A      1  0.2220669778068  0.8004412985959  0.2463070309961 1.0
A      1  0.1099446777855  0.8004447840468  0.4148486776550 1.0
A      1  0.2225356180632  0.7985427362298  0.5814735641638 1.0
A      1  0.1119903238182  0.7993018027208  0.7482648763615 1.0
A      1  0.2228576757259  0.7993765461639  0.9156055321440 1.0
A      1  0.9452909209163  0.8997831916301  0.0812700501638 1.0
A      1  0.0560406168669  0.8996503205219  0.2479634886824 1.0
A      1  0.9453608706652  0.9005296381030  0.4147089048826 1.0
A      1  0.0565050966621  0.8992463309691  0.5819541985302 1.0
A      1  0.9450731028872  0.8994843424430  0.7484272317025 1.0
A      1  0.0560437301898  0.8991152008955  0.9148989101787 1.0
A      1  0.7790765448131  0.5999786020269  0.0806051336125 1.0
A      1  0.8911139229048  0.5995497187218  0.2472103076125 1.0
A      1  0.7800310750925  0.6002683870391  0.4120552943422 1.0
A      1  0.8871130279381  0.5981380327223  0.5819392709390 1.0
A      1  0.7854336568335  0.5995606184134  0.7543255920842 1.0
A      1  0.8920258862292  0.5992408512135  0.9168925076472 1.0
A      1  0.6133229253130  0.7017620989238  0.0788226439119 1.0
A      1  0.7247304896751  0.7004550752615  0.2467615335923 1.0
A      1  0.6153153869372  0.7026675496871  0.4136567152265 1.0
A      1  0.7275539121573  0.7060047612855  0.5751965792074 1.0
A      1  0.6076503755452  0.7059208900283  0.7555565450707 1.0
A      1  0.7237023284145  0.6998234090330  0.9152493225123 1.0
A      1  0.4448168537745  0.7990427463566  0.0831212891120 1.0
A      1  0.5563141057978  0.8002791111851  0.2486701096227 1.0
A      1  0.4448020638434  0.7943583729258  0.4172695203851 1.0
A      1  0.5582902958474  0.7984878301016  0.5836007871110 1.0
A      1  0.4443987183051  0.8026215130652  0.7528753473768 1.0
A      1  0.5551874289219  0.8019455996211  0.9182431629853 1.0
A      1  0.2783463401044  0.8994469936564  0.0822108157479 1.0
A      1  0.3894833314507  0.8982664411123  0.2499969573625 1.0
A      1  0.2783043845008  0.9000338209778  0.4155693913592 1.0
A      1  0.3897537006176  0.9008264891697  0.5825852809962 1.0
A      1  0.2779096915034  0.8991309646522  0.7487779146056 1.0
A      1  0.3885080412135  0.9000849571755  0.9171557587769 1.0
A      1  0.1117036849836  0.9992190333590  0.0817931017414 1.0
A      1  0.2227320792774  0.9991452342895  0.2487728917774 1.0
A      1  0.1115125500178  0.9994997497753  0.4151371152726 1.0
A      1  0.2221488311561  0.9985258016743  0.5823430765446 1.0
A      1  0.1113238601563  0.9991994016832  0.7486811010585 1.0
A      1  0.2221435343464  0.9990326387926  0.9154920052984 1.0
A      1  0.7793542209099  0.8004738708487  0.0813074888956 1.0
A      1  0.8907148116883  0.7997480065352  0.2476269317489 1.0
A      1  0.7806153597981  0.8023158486870  0.4123136207639 1.0
A      1  0.8915779528559  0.8004171720880  0.5812874520530 1.0
A      1  0.7782271225708  0.7990146040406  0.7473876251702 1.0
A      1  0.8897802391575  0.7991822605124  0.9144824604465 1.0
A      1  0.6120121850890  0.9006030683292  0.0829355875968 1.0
A      1  0.7228028472737  0.9001281430570  0.2481037148145 1.0
A      1  0.6116617177326  0.8999126933473  0.4157451493137 1.0
A      1  0.7235655186140  0.9012901095746  0.5815737125803 1.0
A      1  0.6120469296730  0.9013599602828  0.7494022722203 1.0
A      1  0.7227820583663  0.8993610484780  0.9151828284829 1.0
A      1  0.4449904190152  0.9989763623244  0.0834596744299 1.0
A      1  0.5559495249854  0.0001875549505  0.2496021684910 1.0
A      1  0.4452266749454  0.9977623053687  0.4158379579974 1.0
A      1  0.5560778603512  0.9986016868806  0.5825816174388 1.0
A      1  0.4447018092435  0.9997145326939  0.7499842209882 1.0
A      1  0.5557129256422  0.9998442041131  0.9166047438803 1.0
A      1  0.7784549240430  0.9998286630579  0.0817362543086 1.0
A      1  0.8891791629405  0.9993813264522  0.2481467058388 1.0
A      1  0.7782397575266  0.0005112670173  0.4149139773004 1.0
A      1  0.8896838654171  0.9994804852899  0.5816917164334 1.0
A      1  0.7788601156335  0.9993247123994  0.7488703052444 1.0
A      1  0.8893029436990  0.9991858275148  0.9151432923599 1.0
END
