TITL AB-20764-5019-562 0.0000000000 4458.8459578500 -1495.5591633410 0 0  183 (P1) n - 1
REM
REM Run started: at Fri Oct 6 15:40:13 BST 2023 in /home/michal/install/eddp/airss/examples/1.11
REM pp3 from code version ## 0.9.3 July 2022 commit b0220bf5cbf550a3b7
REM
REM
REM
REM Total runtime: s
REM
REM
REM ./AB.cell (a186c3e4acc5915692489c59fabd1559)
REM ## AIRSS Version 0.9.3 July 2022 commit b0220bf5cbf550a3b7
REM compiler GCC version 11.4.0
REM options -cpp -imultiarch x86_64-linux-gnu -mtune=generic -march=x86-64 -g -Og -fpre-include=/usr/include/finclude/math-vector-fortran.h
REM cmdline: airss.pl -pp3 max 100 -seed AB 
REM seed 1973827155 -1332450212 -33765032 -1403723042 -1224384274 167345973 -1778723716 355358000
REM
REM AB.pp (46f9ffe235eb1beff4ce53cde2d82919)
REM 
CELL 1.54180   16.99142   16.35000   16.05000   90.00000   90.00000   90.00000
LATT -1
SFAC A  B  
A      1  0.9455239588469  0.0995450496716  0.0848495558357 1.0
A      1  0.0559451308586  0.0995312344195  0.2512995870106 1.0
A      1  0.4401962520508  0.6069543874881  0.4267555362340 1.0
A      1  0.6254523987441  0.5060041110732  0.4187044599102 1.0
A      1  0.5565098262585  0.4374093859777  0.5810688392348 1.0
A      1  0.3813429992188  0.4998423770610  0.5869306805215 1.0
A      1  0.4383312681676  0.3923705906080  0.4275941205334 1.0
B      2  0.5093502760086  0.3110100172528  0.6547918684576 1.0
B      2  0.6157320426932  0.5957468233662  0.6246298099667 1.0
B      2  0.5002171997099  0.4985852966725  0.3372699388708 1.0
B      2  0.5049895744332  0.6043786914679  0.5772423671777 1.0
A      1  0.9437991742432  0.0996409982833  0.4181968252512 1.0
A      1  0.0540751204380  0.0992850686678  0.5848383005361 1.0
A      1  0.9450555632816  0.0993334883306  0.7515009091001 1.0
A      1  0.0563416120588  0.0996946933435  0.9182623648314 1.0
A      1  0.2785340282220  0.0999617238136  0.0846258548569 1.0
A      1  0.3890896521707  0.0996992516818  0.2510896853704 1.0
A      1  0.2775057953724  0.0995152459276  0.4181968422233 1.0
A      1  0.3884870558477  0.0982768458392  0.5851332896366 1.0
A      1  0.2782296090843  0.1002068017824  0.7516045885993 1.0
A      1  0.3894137623726  0.0998865842777  0.9184034003364 1.0
A      1  0.1117637740079  0.1997701640597  0.0847523973623 1.0
A      1  0.2225341462935  0.1992631406066  0.2508214256551 1.0
A      1  0.1098887337368  0.1988872467731  0.4176055473458 1.0
A      1  0.2185622262409  0.1973945415765  0.5848977575337 1.0
A      1  0.1112002211054  0.1995411015663  0.7520249587752 1.0
A      1  0.2228198643476  0.1998611958586  0.9184599837919 1.0
A      1  0.9450210492631  0.2994214700550  0.0849829565816 1.0
A      1  0.0557662802196  0.2992657854394  0.2512088449589 1.0
A      1  0.9449137679867  0.2987829147660  0.4178747083259 1.0
A      1  0.0551509492460  0.2987836032648  0.5848091906427 1.0
A      1  0.9455309403389  0.2991065767526  0.7520821296408 1.0
A      1  0.0564992226560  0.2996710874127  0.9183943944426 1.0
A      1  0.6120663305564  0.0990489452512  0.0846977932312 1.0
A      1  0.7235362807178  0.0991852213968  0.2508151102563 1.0
A      1  0.6126359402685  0.0972981760105  0.4151113630701 1.0
A      1  0.7236976062802  0.0978138883772  0.5846680866156 1.0
A      1  0.6116996381214  0.0993191439473  0.7505636651001 1.0
A      1  0.7228829278700  0.0999307111024  0.9178650825208 1.0
A      1  0.4452135814668  0.2002199570037  0.0855779402472 1.0
A      1  0.5566015117922  0.1980774219192  0.2517807213962 1.0
A      1  0.4438902209680  0.1974287483681  0.4174758594696 1.0
A      1  0.5582452667568  0.1883444136297  0.5780689118348 1.0
A      1  0.4449892885437  0.1997504686953  0.7521595199285 1.0
A      1  0.5559300791631  0.1987685545909  0.9188604696137 1.0
A      1  0.2782839436760  0.3001641376277  0.0852023686587 1.0
A      1  0.3897102225311  0.3009127276815  0.2527611716856 1.0
A      1  0.2736435322441  0.2983113136082  0.4166960240523 1.0
A      1  0.3782546613000  0.2954944375199  0.5837290534421 1.0
A      1  0.2770335288214  0.3002598439362  0.7522297754070 1.0
A      1  0.3891745115562  0.2998600230216  0.9188192350257 1.0
A      1  0.1107380324172  0.3997027672739  0.0844042264029 1.0
A      1  0.2203921518485  0.3991413225038  0.2506946537817 1.0
A      1  0.1100288454821  0.3997599540578  0.4177865684102 1.0
A      1  0.2188616124781  0.3996659560880  0.5845887941192 1.0
A      1  0.1106377465822  0.3998248492256  0.7517375388910 1.0
A      1  0.2225502149863  0.3998805228160  0.9179709052311 1.0
A      1  0.9448798955343  0.5000067515477  0.0846351601509 1.0
A      1  0.0558455631627  0.5000336917959  0.2510650239873 1.0
A      1  0.9455636887662  0.4997024743782  0.4181774641054 1.0
A      1  0.0557484243431  0.4999673214207  0.5849354282298 1.0
A      1  0.9451574361386  0.5000336862067  0.7516282593597 1.0
A      1  0.0564494163340  0.5002119658407  0.9181330041141 1.0
A      1  0.7794073247534  0.1987718230908  0.0852844919484 1.0
A      1  0.8897453137963  0.1993107998805  0.2519153748971 1.0
A      1  0.7764827756828  0.1998804832743  0.4192227894903 1.0
A      1  0.8877639227765  0.1999543507737  0.5847590542174 1.0
A      1  0.7798171763222  0.1986664598672  0.7515019195119 1.0
A      1  0.8903789563021  0.1993362817406  0.9184057275623 1.0
A      1  0.6133156969963  0.2974989364122  0.0828286415952 1.0
A      1  0.7245321687181  0.2984200097485  0.2521400783943 1.0
A      1  0.6091034141546  0.3040065999415  0.4198879395897 1.0
A      1  0.7174504248627  0.3015056144339  0.5865293576906 1.0
A      1  0.6184170521030  0.2989059852051  0.7597518380385 1.0
A      1  0.7258517762027  0.2996472621588  0.9207312845568 1.0
A      1  0.4446759652870  0.4001166206472  0.0842005030839 1.0
A      1  0.5608408690600  0.3933307246201  0.2443987057068 1.0
A      1  0.4413186067403  0.4054066017211  0.7569308196071 1.0
A      1  0.5560718120180  0.3994458200660  0.9202707078790 1.0
A      1  0.2757201058958  0.5001888241434  0.0823903988332 1.0
A      1  0.3813293025645  0.5002009802884  0.2450866363577 1.0
A      1  0.2769473649167  0.4999751906423  0.4168585491660 1.0
A      1  0.2757301266626  0.5014800528225  0.7526994308595 1.0
A      1  0.3886006134045  0.5021448982891  0.9190036619676 1.0
A      1  0.1107630278269  0.6004161232085  0.0845400648043 1.0
A      1  0.2205820726419  0.6011530073709  0.2509234420279 1.0
A      1  0.1107328923009  0.6000622543739  0.4179077790985 1.0
A      1  0.2200304289531  0.6010237886531  0.5846266363472 1.0
A      1  0.1104425498864  0.6005757406908  0.7515599574471 1.0
A      1  0.2218108573723  0.6011225220712  0.9182815698253 1.0
A      1  0.9451199394985  0.7004222101971  0.0844710622050 1.0
A      1  0.0561074727884  0.7007725482352  0.2510777078052 1.0
A      1  0.9466444076168  0.7014064874071  0.4177195156127 1.0
A      1  0.0562323093952  0.7011424277034  0.5848426733955 1.0
A      1  0.9450601626478  0.7005558618504  0.7517261277357 1.0
A      1  0.0559946105838  0.7005973037784  0.9181713445850 1.0
A      1  0.7789369489954  0.3995549983739  0.0857964698552 1.0
A      1  0.8904113857639  0.3997576951687  0.2513952958413 1.0
A      1  0.7810658467071  0.3982534452947  0.4180868071724 1.0
A      1  0.8916173570453  0.3980017498199  0.5851211685502 1.0
A      1  0.7809910077513  0.3995294592402  0.7526980693097 1.0
A      1  0.8909469330336  0.3998900476970  0.9188040612838 1.0
A      1  0.6124276439080  0.5001786015061  0.0837307354411 1.0
A      1  0.7246935600167  0.5001242918257  0.2502760467460 1.0
A      1  0.7331293988442  0.4995793154990  0.5851425431951 1.0
A      1  0.6142660082805  0.4982445689035  0.7571138490254 1.0
A      1  0.7244978494385  0.4996335750381  0.9195859972672 1.0
A      1  0.4450752500388  0.6005260528412  0.0840519687141 1.0
A      1  0.5601242373264  0.6061333928177  0.2451269379454 1.0
A      1  0.4483168971421  0.6014459524136  0.7461527448535 1.0
A      1  0.5559951769074  0.6001470809118  0.9180286098254 1.0
A      1  0.2786395805492  0.6999949603265  0.0849161796375 1.0
A      1  0.3897133503963  0.6992357432987  0.2527717588329 1.0
A      1  0.2755033438987  0.7014074582979  0.4180058168966 1.0
A      1  0.3830558327804  0.7040223928800  0.5870885551178 1.0
A      1  0.2773909703753  0.7002506791974  0.7524825545298 1.0
A      1  0.3895811193001  0.7002212620270  0.9171195240219 1.0
A      1  0.1119707203112  0.8001509979822  0.0846800085955 1.0
A      1  0.2228742663084  0.8004541755112  0.2510988509669 1.0
A      1  0.1112320283356  0.8009981773126  0.4177833613850 1.0
A      1  0.2204566943260  0.8016990690847  0.5851794798784 1.0
A      1  0.1113849360131  0.8004785315915  0.7519129740909 1.0
A      1  0.2228224053121  0.8004914579569  0.9184662509899 1.0
A      1  0.9455367371843  0.9000819649268  0.0845576364107 1.0
A      1  0.0562872325283  0.9002303354821  0.2511641743461 1.0
A      1  0.9451004105915  0.9005387532039  0.4178207223681 1.0
A      1  0.0553309575394  0.9005752964644  0.5848808980918 1.0
A      1  0.9451077586904  0.9001004343060  0.7516243481161 1.0
A      1  0.0562235902763  0.9002490612204  0.9182001872468 1.0
A      1  0.7788501610761  0.6005467314652  0.0848040696551 1.0
A      1  0.8908473823902  0.6003245700462  0.2506724841796 1.0
A      1  0.7841531291362  0.6028585548563  0.4172518137677 1.0
A      1  0.8929247240168  0.6011688684764  0.5850721472327 1.0
A      1  0.7790571541103  0.6002246477375  0.7515603300143 1.0
A      1  0.8901320856324  0.6001384086974  0.9181106823490 1.0
A      1  0.6130386636090  0.7017505858474  0.0822536485596 1.0
A      1  0.7245167543805  0.7011409854602  0.2513453025240 1.0
A      1  0.6113621896634  0.6991900680109  0.4189462774599 1.0
A      1  0.7261620902466  0.7005980293118  0.5834051290075 1.0
A      1  0.6129897413882  0.7000203289321  0.7526409205795 1.0
A      1  0.7236591889023  0.6998305823726  0.9178144611246 1.0
A      1  0.4451981978128  0.7997998408411  0.0849219191069 1.0
A      1  0.5563144330881  0.8013052121343  0.2512780351371 1.0
A      1  0.4442574318005  0.8019926742673  0.4184532993305 1.0
A      1  0.5549087024931  0.7911606504586  0.5854608666615 1.0
A      1  0.4448948026777  0.8007124209156  0.7519703311488 1.0
A      1  0.5560676479509  0.8002477015833  0.9177541723155 1.0
A      1  0.2785732976496  0.9001165432115  0.0847117510960 1.0
A      1  0.3891159073875  0.8998389383269  0.2512051953075 1.0
A      1  0.2778151256973  0.9005248439748  0.4182181519740 1.0
A      1  0.3887033952568  0.9001490856810  0.5851093427840 1.0
A      1  0.2782565534333  0.9001928371471  0.7516858358750 1.0
A      1  0.3894611716767  0.9001167287186  0.9183438557465 1.0
A      1  0.1120933464762  0.9999574517069  0.0847135683688 1.0
A      1  0.2226426286984  0.9999155517514  0.2513740171533 1.0
A      1  0.1111346360671  0.0001323570389  0.4181422986681 1.0
A      1  0.2217728398778  0.9997552621837  0.5849957903798 1.0
A      1  0.1116962179726  0.0000483484384  0.7515211620209 1.0
A      1  0.2228838486040  0.0000953566802  0.9180976250332 1.0
A      1  0.7790541743219  0.8004919719730  0.0844519552737 1.0
A      1  0.8900489096105  0.8004477522675  0.2511132050375 1.0
A      1  0.7790753492961  0.8007815123335  0.4174176380501 1.0
A      1  0.8902161296276  0.8006293102513  0.5845372534174 1.0
A      1  0.7789328353010  0.7999432816996  0.7513197505293 1.0
A      1  0.8896444353985  0.8002729578186  0.9180529213724 1.0
A      1  0.6119493475962  0.9001903101770  0.0842466691513 1.0
A      1  0.7229398890516  0.9002241497583  0.2509935104755 1.0
A      1  0.6118096657092  0.8981718470527  0.4182311543406 1.0
A      1  0.7223951320518  0.8984111160171  0.5846328809466 1.0
A      1  0.6117341165182  0.8989537032486  0.7510164534134 1.0
A      1  0.7228114439043  0.8997399743709  0.9178265168116 1.0
A      1  0.4451624767610  0.9999559095830  0.0845524663989 1.0
A      1  0.5558261267211  0.9991914179743  0.2507694360252 1.0
A      1  0.4449736351530  0.9997650111205  0.4178526434024 1.0
A      1  0.5558752749187  0.9938177867329  0.5842865839907 1.0
A      1  0.4450832018334  0.0000443926857  0.7516070400649 1.0
A      1  0.5562845118458  0.9996682137859  0.9176160611312 1.0
A      1  0.7788063798875  0.9996128907642  0.0842559606502 1.0
A      1  0.8896256045385  0.9997085642188  0.2511056748098 1.0
A      1  0.7784384467005  0.9993367986319  0.4178219001483 1.0
A      1  0.8888545392138  0.9994340688212  0.5848859965773 1.0
A      1  0.7782360604215  0.9991863211441  0.7515470514498 1.0
A      1  0.8894931515683  0.9998800055908  0.9180604156903 1.0
END
