TITL AB-20764-5019-368 0.0000000000 4458.8459578500 -1495.1088367189 0 0  183 (P1) n - 1
REM
REM Run started: at Fri Oct 6 15:33:10 BST 2023 in /home/michal/install/eddp/airss/examples/1.11
REM pp3 from code version ## 0.9.3 July 2022 commit b0220bf5cbf550a3b7
REM
REM
REM
REM Total runtime: s
REM
REM
REM ./AB.cell (a186c3e4acc5915692489c59fabd1559)
REM ## AIRSS Version 0.9.3 July 2022 commit b0220bf5cbf550a3b7
REM compiler GCC version 11.4.0
REM options -cpp -imultiarch x86_64-linux-gnu -mtune=generic -march=x86-64 -g -Og -fpre-include=/usr/include/finclude/math-vector-fortran.h
REM cmdline: airss.pl -pp3 max 100 -seed AB 
REM seed 527481669 -1634105864 670517821 -1130590465 -1209774730 1672301845 -784572057 1467470683
REM
REM AB.pp (46f9ffe235eb1beff4ce53cde2d82919)
REM 
CELL 1.54180   16.99142   16.35000   16.05000   90.00000   90.00000   90.00000
LATT -1
SFAC A  B  
A      1  0.9449746248893  0.0996355934645  0.0817611810953 1.0
A      1  0.0552628033226  0.0994045207902  0.2481727614589 1.0
A      1  0.5610069295718  0.4014912164770  0.5854812910798 1.0
A      1  0.6121744535291  0.5016794144671  0.4181956738600 1.0
A      1  0.4507595717500  0.6027919504650  0.4002437156674 1.0
A      1  0.4003641163637  0.4991749646666  0.5941079402440 1.0
A      1  0.4393367470562  0.4103812590143  0.4246975676323 1.0
B      2  0.5219472146855  0.6391261940933  0.5395469976108 1.0
B      2  0.3356982009034  0.5972807034111  0.4969755863605 1.0
B      2  0.6019380201427  0.5896716407094  0.6204630073011 1.0
B      2  0.4989523391188  0.3026148014139  0.3337606428391 1.0
A      1  0.9452805345768  0.0992839845021  0.4151939227994 1.0
A      1  0.0568293170916  0.0999133959510  0.5817917731025 1.0
A      1  0.9458823262107  0.0993228656854  0.7486123735180 1.0
A      1  0.0563428298754  0.0997147390305  0.9148854314597 1.0
A      1  0.2785641787347  0.1001293072394  0.0817837102048 1.0
A      1  0.3896196793981  0.1003564635112  0.2496704591827 1.0
A      1  0.2767808287798  0.0985462993529  0.4155492447238 1.0
A      1  0.3887689565554  0.0986197941578  0.5851897029356 1.0
A      1  0.2783082522713  0.0998189577427  0.7490134175236 1.0
A      1  0.3895480504824  0.0995719075594  0.9155989544959 1.0
A      1  0.1109351077927  0.1995326978833  0.0810259301621 1.0
A      1  0.2203008133628  0.1982131942335  0.2476666413786 1.0
A      1  0.1114963407479  0.1992788866867  0.4149714379113 1.0
A      1  0.2239114498941  0.2007568594444  0.5815118978925 1.0
A      1  0.1123225731452  0.1997481004731  0.7480241339939 1.0
A      1  0.2226582336229  0.1994005390649  0.9140444609336 1.0
A      1  0.9446915528572  0.2995472561276  0.0816046408215 1.0
A      1  0.0548308814431  0.2990382360669  0.2477241412214 1.0
A      1  0.9451284710140  0.2990475023288  0.4154272969020 1.0
A      1  0.0579846397367  0.2998518288407  0.5818812085047 1.0
A      1  0.9461954987830  0.2994835898566  0.7486128661061 1.0
A      1  0.0567035977768  0.2996776058235  0.9143405264560 1.0
A      1  0.6130009799622  0.0982098505713  0.0800161424978 1.0
A      1  0.7241641746592  0.0986855937496  0.2486301423421 1.0
A      1  0.6117081279709  0.1005308797993  0.4150193384471 1.0
A      1  0.7233727887707  0.0995630136857  0.5821489253182 1.0
A      1  0.6127010036667  0.0991469890162  0.7490952240423 1.0
A      1  0.7236818513564  0.0995050393404  0.9151262551135 1.0
A      1  0.4453393039565  0.1994091899285  0.0809271648484 1.0
A      1  0.5594541777904  0.1938663672736  0.2433076629066 1.0
A      1  0.4417226414278  0.1922132467951  0.4226711931979 1.0
A      1  0.5573322591417  0.1998656348452  0.5839859686218 1.0
A      1  0.4457518223668  0.1990736609600  0.7498176453393 1.0
A      1  0.5567607285906  0.1993103672249  0.9155542716632 1.0
A      1  0.2760176716179  0.2994264270517  0.0777915730958 1.0
A      1  0.3809509014078  0.2993022797264  0.2407908662192 1.0
A      1  0.2792971007617  0.2979389813707  0.4134743805901 1.0
A      1  0.3914280585013  0.2998734858512  0.5839813838127 1.0
A      1  0.2790573496137  0.3002812685977  0.7480502159244 1.0
A      1  0.3894494327393  0.2991733360851  0.9155977633129 1.0
A      1  0.1102052848189  0.3998881980774  0.0800724261805 1.0
A      1  0.2190471832430  0.3980707073964  0.2437070001829 1.0
A      1  0.1095119811476  0.3978477445649  0.4146326720396 1.0
A      1  0.2264492612189  0.4025403075174  0.5797893087448 1.0
A      1  0.1128969118882  0.4003201441032  0.7473453340372 1.0
A      1  0.2229059691509  0.4002120398389  0.9137693738268 1.0
A      1  0.9448046023317  0.4999679161189  0.0819858393355 1.0
A      1  0.0561663851499  0.5001012390004  0.2483916598113 1.0
A      1  0.9455633907244  0.5001905397214  0.4151431760506 1.0
A      1  0.0556299838268  0.4993058042854  0.5817446453805 1.0
A      1  0.9452076168330  0.4995359609380  0.7487164242854 1.0
A      1  0.0561858273949  0.4996525657447  0.9150440710557 1.0
A      1  0.7784254638640  0.1995890155196  0.0824547330359 1.0
A      1  0.8892098746825  0.1996780702080  0.2485094424382 1.0
A      1  0.7803009096660  0.1987305232301  0.4159203241641 1.0
A      1  0.8912387471438  0.1991463167410  0.5824049173812 1.0
A      1  0.7799161629296  0.1986960442923  0.7495908198619 1.0
A      1  0.8902187532065  0.1995901513841  0.9154665502207 1.0
A      1  0.6124044976853  0.2995495057645  0.0819192804171 1.0
A      1  0.7223829232783  0.2999035147409  0.2501210762228 1.0
A      1  0.6197898966708  0.3006970910747  0.4230384589600 1.0
A      1  0.7266711673708  0.2987981210596  0.5852575668235 1.0
A      1  0.6135846344738  0.2982838288652  0.7502378943044 1.0
A      1  0.7239762906345  0.2994663413499  0.9161054348824 1.0
A      1  0.4455092731220  0.3996418192829  0.0804063021043 1.0
A      1  0.5609257425398  0.4083640486012  0.2426476905908 1.0
A      1  0.4474379216876  0.3975051810959  0.7532522762638 1.0
A      1  0.5574899204744  0.3989886194932  0.9170350946243 1.0
A      1  0.2782195889738  0.4995264867288  0.0802808550103 1.0
A      1  0.3891850050741  0.4981647979855  0.2455614217103 1.0
A      1  0.2705832255531  0.4941582244277  0.4051160151069 1.0
A      1  0.2798045880563  0.5006889287109  0.7494901367547 1.0
A      1  0.3903804674396  0.5002793014152  0.9151706607991 1.0
A      1  0.1112574057652  0.5998753516985  0.0811370956288 1.0
A      1  0.2224083919179  0.6005746673230  0.2453411648037 1.0
A      1  0.1113968636735  0.6006262954496  0.4155380975286 1.0
A      1  0.2157424801857  0.6013702551960  0.5880995882490 1.0
A      1  0.1100473435232  0.6000422065412  0.7508968436726 1.0
A      1  0.2228305173817  0.5999979636880  0.9153236999116 1.0
A      1  0.9453727589188  0.7001893724041  0.0817945285910 1.0
A      1  0.0565349125299  0.7002740428596  0.2482649563558 1.0
A      1  0.9449238797855  0.7001688520552  0.4150036593643 1.0
A      1  0.0540959769439  0.7010545910781  0.5820609400576 1.0
A      1  0.9446385044013  0.6999474952265  0.7487903418196 1.0
A      1  0.0562308265682  0.7003988396910  0.9153845214363 1.0
A      1  0.7786368604879  0.3996992403789  0.0828700559427 1.0
A      1  0.8900322425615  0.3996717730562  0.2486729901390 1.0
A      1  0.7808135137192  0.4006191168559  0.4157608473212 1.0
A      1  0.8915551239580  0.3991013498303  0.5822308992219 1.0
A      1  0.7800573005812  0.3990685335631  0.7498756151508 1.0
A      1  0.8904807998972  0.3994913728824  0.9157426199304 1.0
A      1  0.6139368299779  0.5015490767665  0.0789182072345 1.0
A      1  0.7256176482962  0.5013535577987  0.2491725831307 1.0
A      1  0.7263164564083  0.4981495966663  0.5824928808642 1.0
A      1  0.6135985655649  0.4973121310074  0.7532352665678 1.0
A      1  0.7251089997174  0.4996525546508  0.9159109991195 1.0
A      1  0.4457103887424  0.5999204722581  0.0808969969669 1.0
A      1  0.5599996351384  0.6026946087666  0.2433666670309 1.0
A      1  0.4490838504797  0.6022630526860  0.7504934921192 1.0
A      1  0.5575113291189  0.6003564864878  0.9156903222723 1.0
A      1  0.2781472278027  0.7003067191756  0.0800906328434 1.0
A      1  0.3884385000413  0.7014554226553  0.2441851711832 1.0
A      1  0.2741387821491  0.7063171229915  0.4079993119122 1.0
A      1  0.3894415898976  0.7078670629050  0.5898047845466 1.0
A      1  0.2783234430127  0.7003698418495  0.7508100348945 1.0
A      1  0.3900444281470  0.7003362383588  0.9156944480805 1.0
A      1  0.1114492259387  0.8001876486016  0.0809864361405 1.0
A      1  0.2214551161204  0.8020392530780  0.2453801462708 1.0
A      1  0.1097609418877  0.8012799252671  0.4146839099007 1.0
A      1  0.2218544610627  0.8003272437014  0.5810433622201 1.0
A      1  0.1117766886469  0.7998037311967  0.7482875932559 1.0
A      1  0.2227691713505  0.8005249988720  0.9150912274892 1.0
A      1  0.9454138579428  0.9000413747794  0.0815216386590 1.0
A      1  0.0556520683935  0.9003528586681  0.2479897365458 1.0
A      1  0.9443962168084  0.9000614535250  0.4152565775971 1.0
A      1  0.0555659746494  0.9002689074780  0.5818944204755 1.0
A      1  0.9452197591653  0.8995275802571  0.7483715883754 1.0
A      1  0.0562581780541  0.9000843776707  0.9148040446502 1.0
A      1  0.7793752127427  0.6006194082596  0.0819387396585 1.0
A      1  0.8907209673773  0.6003704744351  0.2484932185480 1.0
A      1  0.7794934206473  0.6002686988596  0.4152686678638 1.0
A      1  0.8898406729326  0.5998739708268  0.5820347330162 1.0
A      1  0.7786866078067  0.5993712304809  0.7486054175169 1.0
A      1  0.8903842850326  0.5999530243688  0.9152062864438 1.0
A      1  0.6130644384784  0.7015477021436  0.0805198123582 1.0
A      1  0.7245024318350  0.7009689801034  0.2481524061348 1.0
A      1  0.6137444026523  0.7007034232984  0.4148130869159 1.0
A      1  0.7214622549972  0.6979529788914  0.5816176276539 1.0
A      1  0.6126318151687  0.6996902092567  0.7482332255085 1.0
A      1  0.7239067037021  0.6997790143442  0.9148374374559 1.0
A      1  0.4458139631050  0.8006459595254  0.0811611149984 1.0
A      1  0.5559836659034  0.7999924080709  0.2488122947700 1.0
A      1  0.4443400693918  0.7988583546443  0.4162619791290 1.0
A      1  0.5569250340444  0.7987021556454  0.5825270646427 1.0
A      1  0.4463668237809  0.8024191044433  0.7516219151592 1.0
A      1  0.5571837287078  0.8000659611414  0.9152292055897 1.0
A      1  0.2787736167810  0.9004890830319  0.0812475750121 1.0
A      1  0.3890833453786  0.9000264054375  0.2486131725155 1.0
A      1  0.2776772132388  0.9013027899727  0.4149891797614 1.0
A      1  0.3895256269480  0.9018737641536  0.5825668681774 1.0
A      1  0.2786578827005  0.8999254937693  0.7484321937819 1.0
A      1  0.3894825867657  0.9004263406465  0.9159929996350 1.0
A      1  0.1118901059413  0.9999548396227  0.0815348187558 1.0
A      1  0.2225183752372  0.0001655066825  0.2480283016156 1.0
A      1  0.1109451556362  0.9998039112909  0.4149039341292 1.0
A      1  0.2221768721901  0.0000008027382  0.5822217234459 1.0
A      1  0.1119286869961  0.9996251330555  0.7485407715753 1.0
A      1  0.2228335993615  0.9999641911728  0.9150961842003 1.0
A      1  0.7792663845692  0.8003330260509  0.0815475239199 1.0
A      1  0.8901025350736  0.8001853314320  0.2483898401174 1.0
A      1  0.7787922291530  0.8000866820063  0.4153715028871 1.0
A      1  0.8885254741077  0.7997744308594  0.5818625493653 1.0
A      1  0.7785264260463  0.7994712294559  0.7482487943483 1.0
A      1  0.8898500537782  0.8000260004544  0.9150528612659 1.0
A      1  0.6124090934628  0.8998703125630  0.0819131122695 1.0
A      1  0.7231429290888  0.8995869739802  0.2486384843941 1.0
A      1  0.6117715787211  0.8997196683174  0.4156745348563 1.0
A      1  0.7228285633702  0.8993878394631  0.5819249457052 1.0
A      1  0.6126175692658  0.8999587322398  0.7485070017024 1.0
A      1  0.7233707121636  0.8998031698181  0.9150944065819 1.0
A      1  0.4455189796527  0.0002378926767  0.0825391330363 1.0
A      1  0.5564418204053  0.9981475700085  0.2487346625015 1.0
A      1  0.4451012227985  0.9975150242721  0.4155425407527 1.0
A      1  0.5564696323853  0.9999373947689  0.5820580826397 1.0
A      1  0.4457212907678  0.0001546298072  0.7496943852673 1.0
A      1  0.5564373128464  0.9993695313664  0.9151925155907 1.0
A      1  0.7791080307700  0.9995158969493  0.0817178438510 1.0
A      1  0.8895259896142  0.9995866767044  0.2485410329322 1.0
A      1  0.7781766436366  0.9995703950538  0.4155018744969 1.0
A      1  0.8895952646841  0.9997592617732  0.5819170765859 1.0
A      1  0.7790976110450  0.9992994402470  0.7484578385683 1.0
A      1  0.8899079877566  0.9997521698401  0.9149990176449 1.0
END
