TITL AB-20764-5019-304 0.0000000000 4458.8459578500 -1495.9336115832 0 0  183 (P1) n - 1
REM
REM Run started: at Fri Oct 6 15:30:37 BST 2023 in /home/michal/install/eddp/airss/examples/1.11
REM pp3 from code version ## 0.9.3 July 2022 commit b0220bf5cbf550a3b7
REM
REM
REM
REM Total runtime: s
REM
REM
REM ./AB.cell (a186c3e4acc5915692489c59fabd1559)
REM ## AIRSS Version 0.9.3 July 2022 commit b0220bf5cbf550a3b7
REM compiler GCC version 11.4.0
REM options -cpp -imultiarch x86_64-linux-gnu -mtune=generic -march=x86-64 -g -Og -fpre-include=/usr/include/finclude/math-vector-fortran.h
REM cmdline: airss.pl -pp3 max 100 -seed AB 
REM seed 363590026 589545317 -1557024663 -1421537778 -816252080 2134408899 -1525742835 -11002679
REM
REM AB.pp (46f9ffe235eb1beff4ce53cde2d82919)
REM 
CELL 1.54180   16.99142   16.35000   16.05000   90.00000   90.00000   90.00000
LATT -1
SFAC A  B  
A      1  0.9445093628994  0.1016072968738  0.0829199369421 1.0
A      1  0.0550384494325  0.1014821688723  0.2493542771553 1.0
A      1  0.4504841451635  0.6036444153194  0.4239751198234 1.0
A      1  0.6152026649170  0.5022063255292  0.4032288468474 1.0
A      1  0.4391035208843  0.4090702383336  0.4230258054167 1.0
A      1  0.5568115692653  0.4393383280662  0.5747412712668 1.0
A      1  0.3832226783273  0.5054419950524  0.5879275370338 1.0
B      2  0.5147746551565  0.6088783211391  0.6112905144401 1.0
B      2  0.6118706534492  0.5974942745095  0.5364859429294 1.0
B      2  0.5020606744476  0.3032340205262  0.3320093888748 1.0
B      2  0.5103895797155  0.3149083957165  0.6528229035029 1.0
A      1  0.9442463106590  0.1015592190025  0.4160789936997 1.0
A      1  0.0550423586557  0.1013879364380  0.5826348933911 1.0
A      1  0.9450610168859  0.1010922503611  0.7494486405291 1.0
A      1  0.0558110359980  0.1016521129488  0.9160847734739 1.0
A      1  0.2779458724975  0.1021237761248  0.0825667747582 1.0
A      1  0.3890721347623  0.1021903313091  0.2496746669182 1.0
A      1  0.2758168352888  0.1006343849545  0.4160606295020 1.0
A      1  0.3876085904190  0.0994873991815  0.5848912039689 1.0
A      1  0.2776337608878  0.1021767407729  0.7496229394090 1.0
A      1  0.3889957412752  0.1017265578697  0.9155026561416 1.0
A      1  0.1103785045548  0.2015952380439  0.0823467822669 1.0
A      1  0.2200901976011  0.2007302954919  0.2485115267592 1.0
A      1  0.1101935774285  0.2016252181533  0.4157589539398 1.0
A      1  0.2201616986937  0.2006328699678  0.5822179990027 1.0
A      1  0.1109679894842  0.2016795906432  0.7494405540194 1.0
A      1  0.2220662258417  0.2016449430079  0.9154185811866 1.0
A      1  0.9443596242545  0.3017018064551  0.0830152105573 1.0
A      1  0.0552699969986  0.3018534408206  0.2492572905752 1.0
A      1  0.9447821659924  0.3015215047495  0.4161654445722 1.0
A      1  0.0555180441250  0.3013402899271  0.5828495262983 1.0
A      1  0.9450433221428  0.3012944757644  0.7501114225270 1.0
A      1  0.0560708197454  0.3018600203571  0.9163526767363 1.0
A      1  0.6126772017892  0.0994130436224  0.0792596676328 1.0
A      1  0.7244912184575  0.1002478447999  0.2485749281082 1.0
A      1  0.6116431421708  0.1010322968570  0.4122015236777 1.0
A      1  0.7239911214507  0.0998724384497  0.5822896891059 1.0
A      1  0.6118749697800  0.1006422714700  0.7489178109853 1.0
A      1  0.7231632226156  0.1016742903061  0.9153629832644 1.0
A      1  0.4442481115288  0.2018197964944  0.0812376167849 1.0
A      1  0.5595287453150  0.1941976840542  0.2414265139469 1.0
A      1  0.4399432113373  0.1952126852460  0.4213099810989 1.0
A      1  0.5583547155845  0.1898065790963  0.5787659268758 1.0
A      1  0.4449239392373  0.2024010301415  0.7492790690116 1.0
A      1  0.5557712713910  0.2010267448121  0.9162131188619 1.0
A      1  0.2752660214894  0.3020114453740  0.0800886331092 1.0
A      1  0.3810549659846  0.3020403028516  0.2426480714256 1.0
A      1  0.2758654234743  0.3019794389833  0.4132547884002 1.0
A      1  0.3803465413855  0.3016134418223  0.5791040965366 1.0
A      1  0.2771034092530  0.3023720300612  0.7491646555438 1.0
A      1  0.3885494703080  0.3017778468657  0.9159295977211 1.0
A      1  0.1102134985908  0.4022565924390  0.0827179500315 1.0
A      1  0.2202434831110  0.4032877148300  0.2492178047697 1.0
A      1  0.1101978849621  0.4021266403039  0.4160427755147 1.0
A      1  0.2195731038827  0.4027723021909  0.5826856404715 1.0
A      1  0.1101256233135  0.4017888847756  0.7497234922235 1.0
A      1  0.2217743419882  0.4024191211373  0.9162037294068 1.0
A      1  0.9445046264574  0.5022374467621  0.0829158669237 1.0
A      1  0.0554050575344  0.5024771549152  0.2495505076689 1.0
A      1  0.9449149772132  0.5023268793827  0.4160977931868 1.0
A      1  0.0554922191631  0.5023821364814  0.5829592411257 1.0
A      1  0.9449651179698  0.5022430843923  0.7495476448667 1.0
A      1  0.0558945575773  0.5024412680813  0.9164018314587 1.0
A      1  0.7780202482425  0.2014042107177  0.0840041983902 1.0
A      1  0.8887780292486  0.2020354268415  0.2498975799468 1.0
A      1  0.7783263078124  0.2016006990543  0.4172725924458 1.0
A      1  0.8890854550057  0.2016135388839  0.5831042740143 1.0
A      1  0.7801798647401  0.2000139642238  0.7505108865148 1.0
A      1  0.8901228436172  0.2014580904853  0.9168642152025 1.0
A      1  0.6117525898150  0.3015292135629  0.0809552830354 1.0
A      1  0.7206081724216  0.3021876431355  0.2517577870394 1.0
A      1  0.6171420172029  0.3049085329977  0.4287936914216 1.0
A      1  0.7220941346525  0.3027110830666  0.5888971631511 1.0
A      1  0.6187993070207  0.3013210974086  0.7579758967272 1.0
A      1  0.7253966965826  0.3015771582593  0.9190911804550 1.0
A      1  0.4437720891231  0.4022710736489  0.0815003391758 1.0
A      1  0.5597896681918  0.4096080403491  0.2386545513087 1.0
A      1  0.4404149669582  0.4078320214421  0.7551101003690 1.0
A      1  0.5555445503952  0.4023476310704  0.9166842985687 1.0
A      1  0.2773943704884  0.5020985515391  0.0844745619296 1.0
A      1  0.3899020403187  0.5022712311358  0.2520769709217 1.0
A      1  0.2759456142529  0.5039397562906  0.4171428442889 1.0
A      1  0.2740737985989  0.5032014110292  0.7515659979523 1.0
A      1  0.3871438962483  0.5034242621044  0.9193153178350 1.0
A      1  0.1111285228651  0.6022047051079  0.0833355691122 1.0
A      1  0.2223239849235  0.6025124233816  0.2501133636923 1.0
A      1  0.1106711539056  0.6026203381360  0.4162631107873 1.0
A      1  0.2198395211088  0.6035839715713  0.5838228757737 1.0
A      1  0.1098439633571  0.6027789205871  0.7501315572263 1.0
A      1  0.2215884902569  0.6029929617098  0.9175983300840 1.0
A      1  0.9452346327756  0.7023731442392  0.0823968650120 1.0
A      1  0.0562453274504  0.7024506623253  0.2493879991233 1.0
A      1  0.9451444350792  0.7024889055524  0.4156862100099 1.0
A      1  0.0555338923951  0.7030332123631  0.5829369612510 1.0
A      1  0.9445781837583  0.7025522804140  0.7494493464605 1.0
A      1  0.0556137301223  0.7025929440304  0.9163949612153 1.0
A      1  0.7783023681726  0.4017762165124  0.0830988684391 1.0
A      1  0.8895842137487  0.4016394587878  0.2494652320446 1.0
A      1  0.7803949848302  0.4024435638609  0.4164604060087 1.0
A      1  0.8912415628776  0.4008745501332  0.5832761221496 1.0
A      1  0.7806126786225  0.4025446674654  0.7513397394224 1.0
A      1  0.8904858587258  0.4021773914312  0.9168837921081 1.0
A      1  0.6130507117696  0.5047901601551  0.0783370121679 1.0
A      1  0.7264866691993  0.5037205560542  0.2453224363201 1.0
A      1  0.7303650463519  0.5022063897296  0.5832512729206 1.0
A      1  0.6115876764198  0.5027936036749  0.7498289528637 1.0
A      1  0.7233407093014  0.5017930511613  0.9151738407045 1.0
A      1  0.4445547786826  0.6022489877089  0.0835720543209 1.0
A      1  0.5559813753145  0.6053463692537  0.2465605620162 1.0
A      1  0.4409276599480  0.6036207713236  0.7544779603137 1.0
A      1  0.5549869515175  0.6025275933611  0.9153930025350 1.0
A      1  0.2779901883463  0.7022177669606  0.0839939077017 1.0
A      1  0.3893164485034  0.7014434372137  0.2512082260263 1.0
A      1  0.2787211795333  0.7018767308344  0.4170471813612 1.0
A      1  0.3865966062391  0.7028639996055  0.5847828976482 1.0
A      1  0.2762223768722  0.7029427560648  0.7507650473974 1.0
A      1  0.3879862154110  0.7033337620824  0.9179656341669 1.0
A      1  0.1116602672108  0.8021833501958  0.0829834825424 1.0
A      1  0.2227120060915  0.8019426019994  0.2498978997372 1.0
A      1  0.1116289667759  0.8020094720190  0.4161714289795 1.0
A      1  0.2215450285270  0.8026083419458  0.5832044180648 1.0
A      1  0.1108881312486  0.8025838447572  0.7497708131843 1.0
A      1  0.2219790690512  0.8027114539681  0.9167498418497 1.0
A      1  0.9451774318149  0.9018944626548  0.0823578317059 1.0
A      1  0.0561217947914  0.9018238731254  0.2492806195341 1.0
A      1  0.9450460966615  0.9018638219244  0.4157588038807 1.0
A      1  0.0554640020705  0.9021131725976  0.5827831788453 1.0
A      1  0.9445576251825  0.9017691682692  0.7493376166355 1.0
A      1  0.0556145461063  0.9021523645856  0.9161402969325 1.0
A      1  0.7792201145565  0.6031406830741  0.0806292481279 1.0
A      1  0.8904712873432  0.6027850720611  0.2489272140477 1.0
A      1  0.7791099432794  0.6026104789018  0.4151535239394 1.0
A      1  0.8914233818244  0.6029529235144  0.5825437939489 1.0
A      1  0.7789328231467  0.6023542492898  0.7493996661493 1.0
A      1  0.8896293158744  0.6022605943538  0.9156269262605 1.0
A      1  0.6118900263740  0.7030300275807  0.0809630050310 1.0
A      1  0.7237215251391  0.7023992132354  0.2473492673155 1.0
A      1  0.6136616294336  0.7037407723481  0.4121199897674 1.0
A      1  0.7244017617983  0.7018161679085  0.5820583606482 1.0
A      1  0.6096906390927  0.6986905346015  0.7453264068204 1.0
A      1  0.7218031634688  0.7018220883133  0.9142802798367 1.0
A      1  0.4447359268972  0.8021135089183  0.0830231118121 1.0
A      1  0.5558302971774  0.8024255325978  0.2479920761708 1.0
A      1  0.4448891679322  0.8019137733162  0.4157362706134 1.0
A      1  0.5553087677455  0.7940414772581  0.5807311567183 1.0
A      1  0.4441309062940  0.8021177111651  0.7496071197076 1.0
A      1  0.5554721346455  0.8013637983978  0.9145318488777 1.0
A      1  0.2781213494943  0.9021572200979  0.0828443662065 1.0
A      1  0.3887329369140  0.9017537336570  0.2491608441137 1.0
A      1  0.2777887514859  0.9015471888837  0.4162705081556 1.0
A      1  0.3888224061422  0.9006409210900  0.5828444063433 1.0
A      1  0.2779084263223  0.9023671278288  0.7496945341504 1.0
A      1  0.3889520827759  0.9022169605122  0.9162160084778 1.0
A      1  0.1114323978531  0.0019974775689  0.0827613036182 1.0
A      1  0.2222987422634  0.0015908588643  0.2492416920050 1.0
A      1  0.1107306997935  0.0015782107748  0.4159715343055 1.0
A      1  0.2216795734956  0.0012825312342  0.5829699340030 1.0
A      1  0.1113082983792  0.0019223496788  0.7495089168477 1.0
A      1  0.2223278584090  0.0020682098317  0.9162112631628 1.0
A      1  0.7785964311571  0.8021358223694  0.0814143897594 1.0
A      1  0.8897619654298  0.8021553509987  0.2486584323285 1.0
A      1  0.7792050824356  0.8021077179629  0.4150215811601 1.0
A      1  0.8894573513620  0.8022992906793  0.5824637831650 1.0
A      1  0.7776796593595  0.8012794107801  0.7488503761579 1.0
A      1  0.8888840091586  0.8019807883793  0.9156287367035 1.0
A      1  0.6116624077030  0.9012991156709  0.0811596934998 1.0
A      1  0.7229407849301  0.9013400872293  0.2483593909756 1.0
A      1  0.6119201985208  0.9012425664339  0.4151442199500 1.0
A      1  0.7223678638508  0.9002705800118  0.5818679549879 1.0
A      1  0.6111770399786  0.8995132557876  0.7479622044648 1.0
A      1  0.7222849625544  0.9017046634868  0.9150905796025 1.0
A      1  0.4448300942240  0.0021402212419  0.0823573890741 1.0
A      1  0.5558902435112  0.9993145308625  0.2479220336795 1.0
A      1  0.4445297360724  0.9999346817240  0.4159014255910 1.0
A      1  0.5557622908329  0.9958631172754  0.5817891358587 1.0
A      1  0.4449523634164  0.0016275402330  0.7493089648428 1.0
A      1  0.5557603323153  0.0009330954638  0.9145442814915 1.0
A      1  0.7787526672604  0.0011525434225  0.0818635197037 1.0
A      1  0.8896768725640  0.0013516002034  0.2491291568329 1.0
A      1  0.7783007619997  0.0012311929269  0.4155485626870 1.0
A      1  0.8892144875774  0.0013215463886  0.5825316226251 1.0
A      1  0.7779966484230  0.0005673724195  0.7488993788661 1.0
A      1  0.8892032129919  0.0016897738306  0.9157336136367 1.0
END
