TITL AB-20764-5019-575 0.0000000000 4458.8459578500 -1496.0170198916 0 0  183 (P1) n - 1
REM
REM Run started: at Fri Oct 6 15:40:42 BST 2023 in /home/michal/install/eddp/airss/examples/1.11
REM pp3 from code version ## 0.9.3 July 2022 commit b0220bf5cbf550a3b7
REM
REM
REM
REM Total runtime: s
REM
REM
REM ./AB.cell (a186c3e4acc5915692489c59fabd1559)
REM ## AIRSS Version 0.9.3 July 2022 commit b0220bf5cbf550a3b7
REM compiler GCC version 11.4.0
REM options -cpp -imultiarch x86_64-linux-gnu -mtune=generic -march=x86-64 -g -Og -fpre-include=/usr/include/finclude/math-vector-fortran.h
REM cmdline: airss.pl -pp3 max 100 -seed AB 
REM seed -835613215 -75900288 -592809293 -134472096 1196985333 1361351068 2056900178 272016785
REM
REM AB.pp (46f9ffe235eb1beff4ce53cde2d82919)
REM 
CELL 1.54180   16.99142   16.35000   16.05000   90.00000   90.00000   90.00000
LATT -1
SFAC A  B  
A      1  0.9447992205632  0.1009471373168  0.0848254615523 1.0
A      1  0.0556223126865  0.1008461493376  0.2519351746628 1.0
A      1  0.5543837502581  0.6029917268210  0.5902281940340 1.0
A      1  0.4477822551589  0.3912922376886  0.4350942529103 1.0
A      1  0.4432901737017  0.6063387973353  0.4237232866430 1.0
A      1  0.6200867742006  0.5196328327899  0.4312271367794 1.0
A      1  0.3919716810408  0.4984342161470  0.5891718813566 1.0
B      2  0.5055821901841  0.4934497168152  0.3363447717640 1.0
B      2  0.6580048802236  0.4056520599034  0.3357703199442 1.0
B      2  0.6075805700913  0.4068244573542  0.5446338125255 1.0
B      2  0.5203821508949  0.3647049021369  0.6209876908937 1.0
A      1  0.9443548631919  0.1015717173647  0.4183806150342 1.0
A      1  0.0543584013847  0.1005197177171  0.5852635090708 1.0
A      1  0.9437893568455  0.1009318478808  0.7515867627242 1.0
A      1  0.0550159457625  0.1007337356497  0.9186093861492 1.0
A      1  0.2774837404563  0.1010729365767  0.0856777717521 1.0
A      1  0.3880159474311  0.1003845782902  0.2518780758474 1.0
A      1  0.2764873458025  0.1001342162197  0.4190467176042 1.0
A      1  0.3871800863232  0.0985209903718  0.5862202620968 1.0
A      1  0.2767785936907  0.1006294476918  0.7526301067375 1.0
A      1  0.3880207820478  0.1002785179437  0.9194949479663 1.0
A      1  0.1103564262192  0.2010528019323  0.0856088082644 1.0
A      1  0.2213711632538  0.2004944342795  0.2524750159648 1.0
A      1  0.1106002950567  0.2009449423443  0.4186264190474 1.0
A      1  0.2196252996808  0.1990089175324  0.5859578480464 1.0
A      1  0.1097212934048  0.2005056739344  0.7524476623660 1.0
A      1  0.2209524653779  0.2002357458796  0.9194684322992 1.0
A      1  0.9437683779140  0.3012959377460  0.0852264887895 1.0
A      1  0.0549898989966  0.3011810851778  0.2519930776566 1.0
A      1  0.9455915371070  0.3012898419286  0.4185887831549 1.0
A      1  0.0558429715547  0.3008087253204  0.5854968006496 1.0
A      1  0.9441685904467  0.3007749993040  0.7521272885810 1.0
A      1  0.0551219010542  0.3009648092421  0.9188213953041 1.0
A      1  0.6111689519092  0.1001155076348  0.0845231673463 1.0
A      1  0.7225823414201  0.1000418230192  0.2512943521079 1.0
A      1  0.6109998537582  0.0980605554720  0.4188788498744 1.0
A      1  0.7212905356575  0.1018528583239  0.5845429656929 1.0
A      1  0.6107591455867  0.1007431442465  0.7515571277258 1.0
A      1  0.7217306367739  0.1009336225043  0.9176471568619 1.0
A      1  0.4444264506490  0.2016620535765  0.0861350890648 1.0
A      1  0.5555842220524  0.1978996167307  0.2522845619473 1.0
A      1  0.4423503962471  0.1964281184255  0.4196586269733 1.0
A      1  0.5526830878275  0.2009593752594  0.5876651747759 1.0
A      1  0.4429376579560  0.1998514011112  0.7532943341227 1.0
A      1  0.5544410150031  0.1999928033023  0.9165484338492 1.0
A      1  0.2763071184332  0.3006545762163  0.0861056383547 1.0
A      1  0.3867256539424  0.3004775930298  0.2547177643334 1.0
A      1  0.2770131700238  0.2998396641325  0.4199688344850 1.0
A      1  0.3829870691740  0.2953922967918  0.5902082254903 1.0
A      1  0.2746538483585  0.3002016476329  0.7536868609514 1.0
A      1  0.3868756880411  0.2991085412130  0.9185045417534 1.0
A      1  0.1098379305670  0.4010236790752  0.0852141391628 1.0
A      1  0.2205460442308  0.4004778186768  0.2521533342828 1.0
A      1  0.1121635942714  0.4012831738198  0.4189887703130 1.0
A      1  0.2222901389036  0.4008183542148  0.5858310052276 1.0
A      1  0.1099330684089  0.4010793904233  0.7521784740574 1.0
A      1  0.2213575750488  0.4007908285508  0.9188743670690 1.0
A      1  0.9438355649011  0.5014386896705  0.0850483779860 1.0
A      1  0.0556086731012  0.5011607962662  0.2517335660257 1.0
A      1  0.9469811868054  0.5021645727578  0.4186267304495 1.0
A      1  0.0568371087599  0.5013623874882  0.5855262756531 1.0
A      1  0.9443845687935  0.5016895289048  0.7520324735549 1.0
A      1  0.0554206877353  0.5013311945026  0.9186390056867 1.0
A      1  0.7789960306345  0.1995515091390  0.0827307608918 1.0
A      1  0.8898073384983  0.2006033274743  0.2514147103021 1.0
A      1  0.7780290737888  0.2020800790568  0.4175630448569 1.0
A      1  0.8885351387396  0.2013993969184  0.5848179992577 1.0
A      1  0.7774030549026  0.2006910935384  0.7511662671814 1.0
A      1  0.8890046677232  0.2009931122947  0.9177882258241 1.0
A      1  0.6130917090629  0.2971645497537  0.0775573134945 1.0
A      1  0.7243787259716  0.2967626447272  0.2463195850147 1.0
A      1  0.6085877462853  0.2910911901555  0.4244569493858 1.0
A      1  0.7222156957315  0.3015639873973  0.5864221705924 1.0
A      1  0.6096174258623  0.3013465207410  0.7499463187035 1.0
A      1  0.7226508146343  0.3008225726833  0.9156656385209 1.0
A      1  0.4398115220154  0.4010232840284  0.0783617011189 1.0
A      1  0.5499544131659  0.3902537884656  0.2314147489943 1.0
A      1  0.4404922260857  0.4003126201745  0.7560329714934 1.0
A      1  0.5548815141321  0.4007852264092  0.9166903702951 1.0
A      1  0.2747897384947  0.5015173342332  0.0835029745101 1.0
A      1  0.3834737648602  0.5005504309853  0.2459855153931 1.0
A      1  0.2817623212648  0.4996176690172  0.4187944622599 1.0
A      1  0.2760282798197  0.5010878882931  0.7522736611837 1.0
A      1  0.3870092420803  0.5023807244481  0.9179600410774 1.0
A      1  0.1101896954993  0.6016184324679  0.0851770622375 1.0
A      1  0.2215128717185  0.6013337713386  0.2521388153963 1.0
A      1  0.1129653627820  0.6009095896400  0.4187442967315 1.0
A      1  0.2238576238190  0.6002645414407  0.5851055051178 1.0
A      1  0.1107155366185  0.6014590400881  0.7517384720228 1.0
A      1  0.2212381175866  0.6018122345940  0.9184025434938 1.0
A      1  0.9449510846368  0.7022312800334  0.0844800621355 1.0
A      1  0.0567338766218  0.7018337912656  0.2517674198598 1.0
A      1  0.9472280667745  0.7028866149969  0.4183333105732 1.0
A      1  0.0568040328404  0.7012192458118  0.5851886157976 1.0
A      1  0.9446406261976  0.7018612624911  0.7516039995900 1.0
A      1  0.0553989337563  0.7015445884458  0.9182914261037 1.0
A      1  0.7773719906590  0.4012681197593  0.0831976760617 1.0
A      1  0.8881264369033  0.4017147351788  0.2522479162547 1.0
A      1  0.7829499589461  0.4027862121137  0.4232828726557 1.0
A      1  0.8914861160596  0.4012020724496  0.5867223121180 1.0
A      1  0.7784139386420  0.4008597014003  0.7523033298723 1.0
A      1  0.8890855803553  0.4013767112320  0.9183468377270 1.0
A      1  0.6112598921339  0.5014676401602  0.0815528210974 1.0
A      1  0.7266429590721  0.5088948910310  0.2453988898317 1.0
A      1  0.7276971249959  0.5030723875234  0.5895314991170 1.0
A      1  0.6091304565549  0.4981519287745  0.7482510321254 1.0
A      1  0.7218382167017  0.5013691493730  0.9164059872685 1.0
A      1  0.4445806219933  0.6011258393025  0.0840316758613 1.0
A      1  0.5598417281993  0.6072205987723  0.2466529866522 1.0
A      1  0.4431154355276  0.6015307866431  0.7536593556982 1.0
A      1  0.5553878765034  0.6009892497608  0.9168936070307 1.0
A      1  0.2777777794518  0.7009633045213  0.0856550565415 1.0
A      1  0.3897282196700  0.7002849919857  0.2524867752703 1.0
A      1  0.2774975005632  0.7016185354492  0.4188180248915 1.0
A      1  0.3880120100906  0.7019151783998  0.5874510691955 1.0
A      1  0.2769837836010  0.7013021584101  0.7525525741379 1.0
A      1  0.3883368336162  0.7017342179600  0.9190346614356 1.0
A      1  0.1114415328055  0.8014668482412  0.0851494963747 1.0
A      1  0.2228323425983  0.8010310001816  0.2518905138835 1.0
A      1  0.1118601602607  0.8017653524068  0.4185347046718 1.0
A      1  0.2219706918070  0.8008758843619  0.5856228269381 1.0
A      1  0.1108883697776  0.8014851973761  0.7520312269001 1.0
A      1  0.2218858981327  0.8012942475012  0.9189036892439 1.0
A      1  0.9449791376877  0.9016486853446  0.0847541262373 1.0
A      1  0.0561369691095  0.9013017802943  0.2517470708631 1.0
A      1  0.9451951480395  0.9021636304438  0.4183954830107 1.0
A      1  0.0551394883333  0.9008876436323  0.5852558938641 1.0
A      1  0.9441814712412  0.9014577295275  0.7515902185349 1.0
A      1  0.0552541560713  0.9011701965411  0.9184693712330 1.0
A      1  0.7787378350627  0.6033528249956  0.0818079727250 1.0
A      1  0.8917350195381  0.6031675233473  0.2506624188732 1.0
A      1  0.7837407336752  0.6052451958076  0.4171726466642 1.0
A      1  0.8911405382935  0.6022882532228  0.5852921591956 1.0
A      1  0.7779903032024  0.6022713311765  0.7524824131680 1.0
A      1  0.8893665036138  0.6015128129492  0.9178201893316 1.0
A      1  0.6121940729738  0.7026505982821  0.0824970588740 1.0
A      1  0.7243958054702  0.7049380245505  0.2508230954969 1.0
A      1  0.6118632820177  0.7084645181047  0.4173708777349 1.0
A      1  0.7222380058786  0.7015106098981  0.5841274052374 1.0
A      1  0.6113809865465  0.7013694238983  0.7523804096334 1.0
A      1  0.7223907930467  0.7020907890428  0.9173382425654 1.0
A      1  0.4444998769814  0.8010142670151  0.0853164538486 1.0
A      1  0.5555379630279  0.8034754086387  0.2507061903745 1.0
A      1  0.4439426884319  0.8027732486673  0.4187699546041 1.0
A      1  0.5550891512235  0.8018989958752  0.5856248827909 1.0
A      1  0.4442606555235  0.8012091427630  0.7525295864715 1.0
A      1  0.5551253062118  0.8014394467825  0.9180694647576 1.0
A      1  0.2778106721193  0.9011262761605  0.0853179756239 1.0
A      1  0.3884069149756  0.9008286550215  0.2517137821201 1.0
A      1  0.2773473083883  0.9011696784025  0.4188544730089 1.0
A      1  0.3881842534726  0.9006251056991  0.5858625226509 1.0
A      1  0.2774255364046  0.9009872990959  0.7523382377687 1.0
A      1  0.3884583542096  0.9010205111324  0.9189589798753 1.0
A      1  0.1112690034623  0.0012251738983  0.0852185126403 1.0
A      1  0.2219985543409  0.0007396630654  0.2520146399790 1.0
A      1  0.1107906593705  0.0012876163956  0.4187050657137 1.0
A      1  0.2210902978151  0.0000556808897  0.5857204485478 1.0
A      1  0.1105407286889  0.0010116016458  0.7520390860303 1.0
A      1  0.2216778068959  0.0007463364912  0.9188655248202 1.0
A      1  0.7785840637159  0.8024876155430  0.0842716175106 1.0
A      1  0.8901975786058  0.8023272637933  0.2514878719162 1.0
A      1  0.7794809927866  0.8034351467153  0.4182722417431 1.0
A      1  0.8891174198243  0.8014432817696  0.5848456802021 1.0
A      1  0.7777891374542  0.8016869762421  0.7509241170463 1.0
A      1  0.8888121649137  0.8015166088439  0.9178880779330 1.0
A      1  0.6113961163835  0.9014759641718  0.0844569140045 1.0
A      1  0.7225876285403  0.9022266544682  0.2515055598079 1.0
A      1  0.6114679719081  0.9027358304781  0.4184138083828 1.0
A      1  0.7218325916298  0.9016271641821  0.5847388471985 1.0
A      1  0.6109511154402  0.9011671384214  0.7517097013797 1.0
A      1  0.7219939182257  0.9013908842808  0.9177895864978 1.0
A      1  0.4443267353095  0.0010721243807  0.0853445909931 1.0
A      1  0.5550355309894  0.0007479296058  0.2514325540316 1.0
A      1  0.4437078559084  0.9999660906855  0.4185971045615 1.0
A      1  0.5546577018563  0.0010584002616  0.5856358125010 1.0
A      1  0.4439726240918  0.0006557065835  0.7525508405408 1.0
A      1  0.5550860144310  0.0008198706168  0.9182668348159 1.0
A      1  0.7781557727273  0.0010587176225  0.0844842800929 1.0
A      1  0.8893739154925  0.0012762216480  0.2514747281853 1.0
A      1  0.7785022975219  0.0020679635645  0.4183180480705 1.0
A      1  0.8882510194397  0.0012877007945  0.5849631277441 1.0
A      1  0.7773901618466  0.0012292437074  0.7512161418169 1.0
A      1  0.8885120350392  0.0012027731584  0.9180918165363 1.0
END
