TITL AB-20764-5019-460 0.0000000000 4458.8459578500 -1488.7549297498 0 0  183 (P1) n - 1
REM
REM Run started: at Fri Oct 6 15:36:32 BST 2023 in /home/michal/install/eddp/airss/examples/1.11
REM pp3 from code version ## 0.9.3 July 2022 commit b0220bf5cbf550a3b7
REM
REM
REM
REM Total runtime: s
REM
REM
REM ./AB.cell (a186c3e4acc5915692489c59fabd1559)
REM ## AIRSS Version 0.9.3 July 2022 commit b0220bf5cbf550a3b7
REM compiler GCC version 11.4.0
REM options -cpp -imultiarch x86_64-linux-gnu -mtune=generic -march=x86-64 -g -Og -fpre-include=/usr/include/finclude/math-vector-fortran.h
REM cmdline: airss.pl -pp3 max 100 -seed AB 
REM seed -1233696976 -140721811 721306388 200058352 343874224 765617962 1632228106 2067032981
REM
REM AB.pp (46f9ffe235eb1beff4ce53cde2d82919)
REM 
CELL 1.54180   16.99142   16.35000   16.05000   90.00000   90.00000   90.00000
LATT -1
SFAC A  B  
A      1  0.9444365207904  0.1010920159337  0.0832481503788 1.0
A      1  0.0542458110438  0.1005327317719  0.2492555453987 1.0
A      1  0.5571312153350  0.6015550088420  0.5779555727629 1.0
A      1  0.4472266908878  0.6284739004683  0.4100738230844 1.0
A      1  0.4011492513381  0.4881757419723  0.5888531697245 1.0
A      1  0.5140725111895  0.4599357613891  0.4134677360075 1.0
A      1  0.5735702362627  0.4050458918010  0.5840809912700 1.0
B      2  0.3337399835286  0.5961557277916  0.5036653855304 1.0
B      2  0.6465309363182  0.5346262585423  0.4417636173052 1.0
B      2  0.3958982975371  0.3659385840220  0.4085804811592 1.0
B      2  0.4927743198891  0.3038879536207  0.6632145700841 1.0
A      1  0.9424515115293  0.1003170487502  0.4167413051368 1.0
A      1  0.0544453503772  0.1004392228170  0.5842155019201 1.0
A      1  0.9449602372978  0.1012325313430  0.7507578845292 1.0
A      1  0.0558759211236  0.1015094940103  0.9167360752018 1.0
A      1  0.2771408258057  0.1012692298167  0.0829757414323 1.0
A      1  0.3876694146481  0.1027010295976  0.2493781610285 1.0
A      1  0.2765567355520  0.1012468085558  0.4168823611921 1.0
A      1  0.3889966131623  0.1041096525461  0.5844568837074 1.0
A      1  0.2763441744063  0.1006249553377  0.7504583113695 1.0
A      1  0.3878767704277  0.0997969570411  0.9198798861084 1.0
A      1  0.1102922657690  0.2014616372234  0.0823844331038 1.0
A      1  0.2197936747094  0.1993677231031  0.2470438204125 1.0
A      1  0.1040754322929  0.1986951158647  0.4163701196450 1.0
A      1  0.2179369719036  0.1998804298993  0.5836881029755 1.0
A      1  0.1110247615522  0.2020214970132  0.7505104923107 1.0
A      1  0.2225498361674  0.2019924449449  0.9157476569282 1.0
A      1  0.9440813290279  0.3015879819553  0.0839189326129 1.0
A      1  0.0544404233623  0.3011204816951  0.2500242705510 1.0
A      1  0.9411751694554  0.3022089080147  0.4171025146925 1.0
A      1  0.0550490387611  0.3016807735413  0.5834923646279 1.0
A      1  0.9448270285288  0.3017469234059  0.7505102254991 1.0
A      1  0.0558828462893  0.3017715758658  0.9167133350401 1.0
A      1  0.6116952587793  0.1001986574425  0.0831589766471 1.0
A      1  0.7229398167605  0.1006193374037  0.2493714390800 1.0
A      1  0.6129829248489  0.0997835305860  0.4142301630307 1.0
A      1  0.7244381675145  0.0997237491437  0.5833418905915 1.0
A      1  0.6114943854713  0.1018284194275  0.7494470688957 1.0
A      1  0.7225051473749  0.1015028133499  0.9167583871721 1.0
A      1  0.4446345321192  0.2018846699177  0.0843873384817 1.0
A      1  0.5561534278174  0.1994192690836  0.2484283052320 1.0
A      1  0.4448881068501  0.2041931073175  0.4127691884426 1.0
A      1  0.5601365555480  0.1955601616257  0.5774954462613 1.0
A      1  0.4413467992532  0.1946736107549  0.7576675632414 1.0
A      1  0.5558601920593  0.2007029976678  0.9177293912087 1.0
A      1  0.2774617966125  0.3009666938573  0.0829317765864 1.0
A      1  0.3876820256145  0.3033181982384  0.2511941326576 1.0
A      1  0.2628588053853  0.2937630090888  0.4121028535726 1.0
A      1  0.3775048990107  0.2995923262785  0.5667493513164 1.0
A      1  0.2803613208002  0.3021967516448  0.7470474794423 1.0
A      1  0.3888238559661  0.3010403044953  0.9191487226085 1.0
A      1  0.1106840824354  0.4013027555513  0.0827597454444 1.0
A      1  0.2202878987224  0.3997905203625  0.2466595343046 1.0
A      1  0.1067718174656  0.4013532561948  0.4166594652705 1.0
A      1  0.2202513659988  0.4045082037550  0.5824793079465 1.0
A      1  0.1117594421772  0.4018735789268  0.7504235777192 1.0
A      1  0.2231315845366  0.4018398859578  0.9164237182813 1.0
A      1  0.9446060681275  0.5013669811408  0.0843899070888 1.0
A      1  0.0558693721982  0.5017337924037  0.2506712204343 1.0
A      1  0.9441608495736  0.5022648485179  0.4174927623760 1.0
A      1  0.0535417098084  0.5016552604901  0.5847780791200 1.0
A      1  0.9441428484722  0.5016405604886  0.7514257789260 1.0
A      1  0.0555804615045  0.5013564219460  0.9180924915026 1.0
A      1  0.7787178395178  0.2005639558808  0.0834756410934 1.0
A      1  0.8892585951854  0.2008825355273  0.2501405307096 1.0
A      1  0.7782156726004  0.2009639238955  0.4167449498722 1.0
A      1  0.8905300050228  0.2005246755861  0.5838386075909 1.0
A      1  0.7796271421196  0.2004853601219  0.7509739424692 1.0
A      1  0.8899836288788  0.2013428239563  0.9171847687132 1.0
A      1  0.6130309661563  0.2989755064435  0.0810486696184 1.0
A      1  0.7241690795222  0.3002027927644  0.2498700799352 1.0
A      1  0.6133582208364  0.2982709670975  0.4148652872112 1.0
A      1  0.7269084450375  0.2986218706951  0.5846830248160 1.0
A      1  0.6160258921554  0.3009768948034  0.7550482403266 1.0
A      1  0.7247792797659  0.3013853245460  0.9181359919865 1.0
A      1  0.4440213144018  0.4017653274367  0.0834065672093 1.0
A      1  0.5589212745603  0.3960769812731  0.2407112605999 1.0
A      1  0.4430992369963  0.4085002480873  0.7635403388573 1.0
A      1  0.5574106459853  0.4017139814043  0.9197844185573 1.0
A      1  0.2780092755365  0.5017709823074  0.0854191716794 1.0
A      1  0.3927262369410  0.5017401034395  0.2535010443047 1.0
A      1  0.2794453443872  0.4874804107868  0.4106283355584 1.0
A      1  0.2778888029848  0.5031897073864  0.7507184987446 1.0
A      1  0.3878952059511  0.5049871607923  0.9216112868464 1.0
A      1  0.1113368941571  0.6013998791752  0.0846554953564 1.0
A      1  0.2239863989762  0.6010304822192  0.2514297743328 1.0
A      1  0.1142729895813  0.6005688095186  0.4186670489483 1.0
A      1  0.2136510323518  0.6036975332203  0.5920758678069 1.0
A      1  0.1086270233017  0.6019929767071  0.7541974751057 1.0
A      1  0.2216407285251  0.6019497118826  0.9179241837258 1.0
A      1  0.9447521799956  0.7014731308557  0.0843922744011 1.0
A      1  0.0569109280367  0.7011386585200  0.2510315163074 1.0
A      1  0.9471253022748  0.7021619645663  0.4170286019962 1.0
A      1  0.0542892033747  0.7035990198990  0.5845354152295 1.0
A      1  0.9442901341096  0.7024239734801  0.7516668798498 1.0
A      1  0.0552857349006  0.7020904348048  0.9184763051219 1.0
A      1  0.7777736107151  0.4018837290486  0.0850356432913 1.0
A      1  0.8884151957226  0.4020649674870  0.2514752959711 1.0
A      1  0.7733868712582  0.4047380107705  0.4190435196936 1.0
A      1  0.8896910510699  0.4016133120777  0.5838908843121 1.0
A      1  0.7788153947094  0.4021186226252  0.7507209071669 1.0
A      1  0.8895396499104  0.4016606733478  0.9177729902217 1.0
A      1  0.6122098259268  0.5024420272301  0.0832738094023 1.0
A      1  0.7213142218653  0.5017791036275  0.2543454848159 1.0
A      1  0.7286983337396  0.5059784156983  0.5851704657442 1.0
A      1  0.6120858451083  0.5030978916679  0.7513445928106 1.0
A      1  0.7232036944423  0.5016249054703  0.9175213170438 1.0
A      1  0.4454893555566  0.6022962918401  0.0857961494978 1.0
A      1  0.5581896303584  0.5991675202810  0.2528596571333 1.0
A      1  0.4451227281323  0.6042437545156  0.7498069587092 1.0
A      1  0.5556019061208  0.6019722873760  0.9172622619295 1.0
A      1  0.2771787357246  0.7018008618005  0.0827168695662 1.0
A      1  0.3871364338166  0.7060220785826  0.2454267989574 1.0
A      1  0.2749988874592  0.7092033800805  0.4132010273304 1.0
A      1  0.3919799245377  0.7106318872404  0.5890111523025 1.0
A      1  0.2778888071587  0.7028091425148  0.7523465538639 1.0
A      1  0.3891884213604  0.7025595675048  0.9178230274414 1.0
A      1  0.1107338555617  0.8017334856164  0.0836136801684 1.0
A      1  0.2210150928060  0.8035395632488  0.2484463152384 1.0
A      1  0.1104266767316  0.8029566725564  0.4171414876313 1.0
A      1  0.2224170874011  0.8025881348360  0.5837442744692 1.0
A      1  0.1111975512818  0.8016131610289  0.7508309416178 1.0
A      1  0.2218311096877  0.8020463262620  0.9174072476199 1.0
A      1  0.9444565453922  0.9013664129026  0.0835345772529 1.0
A      1  0.0549921492463  0.9014729727491  0.2500535026590 1.0
A      1  0.9448890353598  0.9017718559419  0.4170778211359 1.0
A      1  0.0557183992444  0.9018362071890  0.5840946987673 1.0
A      1  0.9446509170296  0.9015718911300  0.7507437826660 1.0
A      1  0.0552844108945  0.9016276279193  0.9170592148430 1.0
A      1  0.7781239555074  0.6012821254588  0.0847053551558 1.0
A      1  0.8898562758081  0.6016268575928  0.2501446014100 1.0
A      1  0.7830229538647  0.6051510918270  0.4168796460681 1.0
A      1  0.8910618700103  0.6034751645249  0.5849249117720 1.0
A      1  0.7787252222374  0.6028124876734  0.7520150928565 1.0
A      1  0.8893319705164  0.6017390009794  0.9181618072662 1.0
A      1  0.6113304078243  0.7016190030818  0.0846471368764 1.0
A      1  0.7235577321935  0.7019936991069  0.2498350037007 1.0
A      1  0.6170024672906  0.7032136717792  0.4166425831137 1.0
A      1  0.7238579661668  0.7028825479622  0.5842888147351 1.0
A      1  0.6115626165227  0.7019326474642  0.7493932851774 1.0
A      1  0.7222617122367  0.7015061254806  0.9176884107681 1.0
A      1  0.4450572506678  0.8029120351711  0.0828011828779 1.0
A      1  0.5550857605731  0.8005369897010  0.2512388439838 1.0
A      1  0.4448469502723  0.8148245060543  0.4178407153871 1.0
A      1  0.5573860222852  0.8024661610691  0.5831783813564 1.0
A      1  0.4458993262129  0.8038585122153  0.7527743694006 1.0
A      1  0.5564593374797  0.8015924390936  0.9173300212653 1.0
A      1  0.2777978029300  0.9019348038406  0.0831744562764 1.0
A      1  0.3880091974701  0.9040407764106  0.2496364808101 1.0
A      1  0.2767930237297  0.9049593841680  0.4167989591699 1.0
A      1  0.3883914628712  0.9061204695171  0.5847837879718 1.0
A      1  0.2776988362258  0.9016185434101  0.7507505521614 1.0
A      1  0.3886378568033  0.9017357500846  0.9176206366996 1.0
A      1  0.1108470034566  0.0013485299381  0.0832991994173 1.0
A      1  0.2211093491314  0.0018436169602  0.2497105839390 1.0
A      1  0.1100414676017  0.0016112447047  0.4168237513861 1.0
A      1  0.2215017908230  0.0019723600831  0.5839294153842 1.0
A      1  0.1108251244508  0.0013300750659  0.7505534317032 1.0
A      1  0.2215958950454  0.0014112287715  0.9169323053436 1.0
A      1  0.7781908344257  0.8013294599285  0.0836736210986 1.0
A      1  0.8897306635221  0.8012410077527  0.2503715733720 1.0
A      1  0.7802442275488  0.8030179165465  0.4169190547580 1.0
A      1  0.8893080042947  0.8022935732112  0.5840744194425 1.0
A      1  0.7780962561109  0.8020368196953  0.7510149184380 1.0
A      1  0.8888073539119  0.8016624244687  0.9175814776249 1.0
A      1  0.6115022263469  0.9010850802837  0.0838791685467 1.0
A      1  0.7223582653369  0.9010222835897  0.2499447885836 1.0
A      1  0.6131376035464  0.9024500331711  0.4165721292848 1.0
A      1  0.7231930738120  0.9015589480283  0.5837686959134 1.0
A      1  0.6121317607266  0.9020033765211  0.7504351800563 1.0
A      1  0.7224679029892  0.9016224390455  0.9172652057741 1.0
A      1  0.4448670916276  0.0019168048927  0.0840108206411 1.0
A      1  0.5552630510143  0.0004577897605  0.2498912933998 1.0
A      1  0.4447987362030  0.0075670894649  0.4169510146080 1.0
A      1  0.5561349516612  0.0002567680978  0.5832573231565 1.0
A      1  0.4447246211000  0.0006307650442  0.7511326972557 1.0
A      1  0.5556831557691  0.0012916584537  0.9168138167425 1.0
A      1  0.7780941999289  0.0009406379348  0.0832367327571 1.0
A      1  0.8886376207234  0.0007573926968  0.2497911995781 1.0
A      1  0.7785364244533  0.0011359060139  0.4165101624665 1.0
A      1  0.8893872851480  0.0008539574611  0.5840412389149 1.0
A      1  0.7783072854621  0.0013700677602  0.7506725202456 1.0
A      1  0.8890608615955  0.0015374281869  0.9170081321393 1.0
END
