TITL AB-20764-5019-255 0.0000000000 4458.8459578500 -1500.5460163499 0 0  183 (P1) n - 1
REM
REM Run started: at Fri Oct 6 15:28:44 BST 2023 in /home/michal/install/eddp/airss/examples/1.11
REM pp3 from code version ## 0.9.3 July 2022 commit b0220bf5cbf550a3b7
REM
REM
REM
REM Total runtime: s
REM
REM
REM ./AB.cell (a186c3e4acc5915692489c59fabd1559)
REM ## AIRSS Version 0.9.3 July 2022 commit b0220bf5cbf550a3b7
REM compiler GCC version 11.4.0
REM options -cpp -imultiarch x86_64-linux-gnu -mtune=generic -march=x86-64 -g -Og -fpre-include=/usr/include/finclude/math-vector-fortran.h
REM cmdline: airss.pl -pp3 max 100 -seed AB 
REM seed 557580520 -1246380745 -1523284914 -979162911 -2093557768 1380871564 1983351756 454586474
REM
REM AB.pp (46f9ffe235eb1beff4ce53cde2d82919)
REM 
CELL 1.54180   16.99142   16.35000   16.05000   90.00000   90.00000   90.00000
LATT -1
SFAC A  B  
A      1  0.9434432797011  0.0996069073266  0.0835727430925 1.0
A      1  0.0543656437921  0.0996664345444  0.2502313232134 1.0
A      1  0.4358598266413  0.6062398502731  0.4233378362175 1.0
A      1  0.5559120131279  0.3996818744560  0.5842692710917 1.0
A      1  0.4388913270202  0.3926337614363  0.4241498963755 1.0
A      1  0.3861284255041  0.5013244126818  0.5843366849626 1.0
A      1  0.6183666674265  0.4968321378555  0.4231902394617 1.0
B      2  0.5285114411884  0.5543113170917  0.6265568215249 1.0
B      2  0.5172323181476  0.6571496103042  0.5504486862368 1.0
B      2  0.4985350542121  0.5001702648301  0.3331201887313 1.0
B      2  0.6200480628445  0.5951934596641  0.5505346918593 1.0
A      1  0.9433186594321  0.0995280973172  0.4168912068214 1.0
A      1  0.0541838353102  0.1000963767567  0.5838479420564 1.0
A      1  0.9434380146124  0.0996463522386  0.7505303739945 1.0
A      1  0.0542605406947  0.0998821144446  0.9171891133958 1.0
A      1  0.2764238225905  0.0999114378662  0.0837474232932 1.0
A      1  0.3871580735317  0.0997010116329  0.2502299362888 1.0
A      1  0.2761638292649  0.0993438188002  0.4171693697168 1.0
A      1  0.3872331031797  0.1001715917240  0.5841012717959 1.0
A      1  0.2766187593188  0.1000712605280  0.7507702539977 1.0
A      1  0.3874562635171  0.0998953201945  0.9173417944193 1.0
A      1  0.1098011631991  0.1998196984457  0.0837539680718 1.0
A      1  0.2208979103184  0.1995304155077  0.2501953918458 1.0
A      1  0.1096151437319  0.1991899573548  0.4168795413654 1.0
A      1  0.2207553887869  0.1996314151514  0.5841318198214 1.0
A      1  0.1101529133972  0.1996287638117  0.7507293086761 1.0
A      1  0.2209246162403  0.1998310696412  0.9173692360796 1.0
A      1  0.9428373177323  0.2995211031749  0.0837573595921 1.0
A      1  0.0537810571618  0.2992891786505  0.2502234075666 1.0
A      1  0.9440765994436  0.2988454092634  0.4167945221335 1.0
A      1  0.0554395022741  0.2991762610350  0.5837460221268 1.0
A      1  0.9440361000410  0.2989683403728  0.7508037680756 1.0
A      1  0.0542747905110  0.2995756041324  0.9171432392154 1.0
A      1  0.6098863541728  0.0990684431373  0.0831171393194 1.0
A      1  0.7211361569595  0.0993122265188  0.2499003262135 1.0
A      1  0.6101912566703  0.0997174606379  0.4168196972857 1.0
A      1  0.7210245530610  0.1001644232349  0.5835632745430 1.0
A      1  0.6100095859518  0.0998493806979  0.7501487638384 1.0
A      1  0.7207793960925  0.0996856519366  0.9168556583065 1.0
A      1  0.4431023820898  0.2000463101158  0.0837798475479 1.0
A      1  0.5543322179040  0.1974267435127  0.2497528584327 1.0
A      1  0.4428168561494  0.1976323485552  0.4171946515110 1.0
A      1  0.5541163330824  0.2005397247651  0.5833592391298 1.0
A      1  0.4434025058534  0.1999624347648  0.7509186837240 1.0
A      1  0.5540292114796  0.1992093355881  0.9163453876656 1.0
A      1  0.2763324878165  0.3001405418212  0.0838010409096 1.0
A      1  0.3877420249105  0.3004952687324  0.2511700247930 1.0
A      1  0.2745573367002  0.2984119391143  0.4172596043480 1.0
A      1  0.3866884473292  0.2986222484505  0.5868062253769 1.0
A      1  0.2762200875057  0.3001376542878  0.7509645298450 1.0
A      1  0.3874402002007  0.2998809661506  0.9166450455740 1.0
A      1  0.1085957395547  0.3996498938416  0.0833605083246 1.0
A      1  0.2183951012328  0.3987729281915  0.2498711830169 1.0
A      1  0.1092322537768  0.3997309747889  0.4170772368724 1.0
A      1  0.2211140887701  0.3998184101102  0.5834668075822 1.0
A      1  0.1094905178024  0.3997612615460  0.7502263247507 1.0
A      1  0.2202585265568  0.3995072051145  0.9164498623261 1.0
A      1  0.9423429642848  0.4999489044679  0.0837499395379 1.0
A      1  0.0533015161934  0.4997913390415  0.2502218021695 1.0
A      1  0.9431465455542  0.4996657087685  0.4172624443830 1.0
A      1  0.0546849664602  0.4996099873416  0.5838193077600 1.0
A      1  0.9429809384734  0.4995388147603  0.7506127871487 1.0
A      1  0.0539791059031  0.4998506468200  0.9170319591701 1.0
A      1  0.7770490112687  0.1990589711145  0.0832828653298 1.0
A      1  0.8880704309146  0.1992212312279  0.2502357095887 1.0
A      1  0.7769472939874  0.1990238602279  0.4168182322115 1.0
A      1  0.8881622321056  0.1994455439596  0.5836746536513 1.0
A      1  0.7770226178844  0.1990711999553  0.7503102547591 1.0
A      1  0.8877444264707  0.1995765668335  0.9170018812288 1.0
A      1  0.6109072539449  0.2975456445232  0.0804724691339 1.0
A      1  0.7227465449517  0.2981333946398  0.2498682311784 1.0
A      1  0.6097895180316  0.2992698616241  0.4157288969910 1.0
A      1  0.7217873249535  0.2984337117275  0.5834714933252 1.0
A      1  0.6103957004406  0.2992465997585  0.7502431561739 1.0
A      1  0.7214267675611  0.2993118290772  0.9166804510377 1.0
A      1  0.4427931940933  0.3997326475571  0.0820677512102 1.0
A      1  0.5583619036552  0.3922899876011  0.2427811997903 1.0
A      1  0.4436705917571  0.4012638529098  0.7499945167417 1.0
A      1  0.5542621050742  0.3994370001383  0.9163476983624 1.0
A      1  0.2735191504677  0.4999444632434  0.0805598525713 1.0
A      1  0.3787279538014  0.4999381482996  0.2428149785417 1.0
A      1  0.2755291231576  0.4996044836315  0.4158369886338 1.0
A      1  0.2752317288939  0.5002011658314  0.7503206666593 1.0
A      1  0.3868591423795  0.4998875395576  0.9164157286601 1.0
A      1  0.1084303481783  0.6001751318358  0.0834679785064 1.0
A      1  0.2181562905324  0.6008862112113  0.2500149249814 1.0
A      1  0.1084718004306  0.5999028452237  0.4170158659585 1.0
A      1  0.2191192617377  0.6000288255072  0.5835948211261 1.0
A      1  0.1084516514172  0.6000161941516  0.7504281521031 1.0
A      1  0.2198820365243  0.6003468622809  0.9167763287412 1.0
A      1  0.9424742846729  0.6999619641868  0.0837543742027 1.0
A      1  0.0532138403985  0.7003039337120  0.2503731090732 1.0
A      1  0.9426056679254  0.7003336812196  0.4170386899604 1.0
A      1  0.0538788380067  0.7004511568165  0.5837847988748 1.0
A      1  0.9425470002394  0.7002998242956  0.7505214914951 1.0
A      1  0.0536554060075  0.7002018285289  0.9171372182247 1.0
A      1  0.7760717141636  0.3996135559000  0.0839833284678 1.0
A      1  0.8877332884918  0.3996575061108  0.2501345350623 1.0
A      1  0.7794207470896  0.3976643841324  0.4170296310251 1.0
A      1  0.8909769629003  0.3978175082532  0.5841046431669 1.0
A      1  0.7783838487856  0.3977169183533  0.7521553544296 1.0
A      1  0.8881214374905  0.3995469221171  0.9177378534754 1.0
A      1  0.6097459493087  0.4998842367809  0.0817071869255 1.0
A      1  0.7203312447058  0.4997267105857  0.2510977053050 1.0
A      1  0.7292591552581  0.4946525804071  0.5877191502893 1.0
A      1  0.6125691094205  0.4982696125184  0.7515079116725 1.0
A      1  0.7216681069611  0.4995269899044  0.9172628557108 1.0
A      1  0.4427477286168  0.6001170345584  0.0817862499065 1.0
A      1  0.5582990536838  0.6074917084960  0.2424132657644 1.0
A      1  0.4399109916991  0.6018315056308  0.7516130452064 1.0
A      1  0.5539688330353  0.5998337462166  0.9149242708605 1.0
A      1  0.2760331656294  0.6997688664130  0.0841158393081 1.0
A      1  0.3873610916874  0.6994651861287  0.2511912497793 1.0
A      1  0.2727138462411  0.7016925670834  0.4171525123476 1.0
A      1  0.3788165532699  0.7049683478366  0.5878477959148 1.0
A      1  0.2733086769009  0.7008539532204  0.7522394835133 1.0
A      1  0.3865487636443  0.7006696404993  0.9173593974814 1.0
A      1  0.1093644202129  0.7998951133169  0.0839079816959 1.0
A      1  0.2203082362317  0.8003484778099  0.2502513871514 1.0
A      1  0.1081536218699  0.8006229203269  0.4168289171318 1.0
A      1  0.2174302399474  0.8023146874140  0.5842271613433 1.0
A      1  0.1083673041480  0.8005586172599  0.7509503649390 1.0
A      1  0.2200921108896  0.8005922493887  0.9178672356559 1.0
A      1  0.9431168109411  0.8998951557571  0.0835435336407 1.0
A      1  0.0540362276894  0.9002306961919  0.2501886481922 1.0
A      1  0.9427023107874  0.9003387480889  0.4167810896008 1.0
A      1  0.0532998462108  0.9011362862394  0.5838778276565 1.0
A      1  0.9426418787687  0.9002846693433  0.7506544367740 1.0
A      1  0.0538172591429  0.9002336804766  0.9173026168463 1.0
A      1  0.7758198410694  0.6001226459172  0.0836516563933 1.0
A      1  0.8871280245190  0.5997493453125  0.2506178326088 1.0
A      1  0.7774569141876  0.6003978975231  0.4186083802807 1.0
A      1  0.8894774339799  0.6001193910682  0.5840558497452 1.0
A      1  0.7771349952547  0.6000203819387  0.7504030935402 1.0
A      1  0.8874838475780  0.5999331281772  0.9171797256509 1.0
A      1  0.6106945971138  0.7019291409850  0.0796625527439 1.0
A      1  0.7224672526398  0.7012866437766  0.2502557461284 1.0
A      1  0.6088770199247  0.6986659979275  0.4170163046600 1.0
A      1  0.7250084602586  0.7037342796673  0.5839801254477 1.0
A      1  0.6074614939928  0.6963195564442  0.7427299103753 1.0
A      1  0.7203391263535  0.6996805812508  0.9145661968599 1.0
A      1  0.4432241623087  0.7998044340072  0.0837345324675 1.0
A      1  0.5542578141608  0.8020035566217  0.2502999799622 1.0
A      1  0.4426159555572  0.8012339274910  0.4186438585281 1.0
A      1  0.5549487794771  0.8059031163581  0.5839989409611 1.0
A      1  0.4424470276531  0.8010032455142  0.7504903334664 1.0
A      1  0.5539934831762  0.7994453696317  0.9145435198896 1.0
A      1  0.2764193583276  0.8998831393534  0.0839216930246 1.0
A      1  0.3871102881035  0.8996889823933  0.2506465700308 1.0
A      1  0.2757639129781  0.9002619942463  0.4173548475100 1.0
A      1  0.3864226339280  0.9020068326401  0.5841447530023 1.0
A      1  0.2759007306172  0.9002456669049  0.7507675375018 1.0
A      1  0.3872793925168  0.9001401084517  0.9173047356437 1.0
A      1  0.1099012421318  0.9998196979648  0.0837155645947 1.0
A      1  0.2207221743901  0.9998765516516  0.2503962025516 1.0
A      1  0.1095311416072  0.9998766914887  0.4170706707619 1.0
A      1  0.2202373537222  0.0008022436363  0.5840653363513 1.0
A      1  0.1096910562909  0.0000454042977  0.7506683788249 1.0
A      1  0.2207459169249  0.0001147049836  0.9172675128259 1.0
A      1  0.7766293533064  0.8001037400852  0.0829068009902 1.0
A      1  0.8877473827024  0.8004181294037  0.2501436152069 1.0
A      1  0.7763046846928  0.8006198204744  0.4166125891630 1.0
A      1  0.8886697616451  0.8011942485099  0.5837117068321 1.0
A      1  0.7759065947933  0.8004096551059  0.7504959593228 1.0
A      1  0.8872354564115  0.7999697550640  0.9169054804751 1.0
A      1  0.6096503424747  0.9001209051220  0.0828729140614 1.0
A      1  0.7210869981854  0.9003292177107  0.2496788567907 1.0
A      1  0.6102084222133  0.9002799799316  0.4166332026098 1.0
A      1  0.7216602256497  0.9017850711956  0.5835311313121 1.0
A      1  0.6100763945267  0.9000252457058  0.7504311070898 1.0
A      1  0.7207118338555  0.8999154134867  0.9169483161158 1.0
A      1  0.4429757649912  0.9998569207387  0.0838325469269 1.0
A      1  0.5540370060606  0.9997588791706  0.2501394038730 1.0
A      1  0.4431460094570  0.9996611948827  0.4169729418302 1.0
A      1  0.5540831484056  0.0019903956638  0.5835899458691 1.0
A      1  0.4431805395762  0.0002629746012  0.7506107355808 1.0
A      1  0.5539890966198  0.9996187948303  0.9167344468104 1.0
A      1  0.7766522632287  0.9996948703478  0.0833232820691 1.0
A      1  0.8876764422357  0.9999281144904  0.2500285460192 1.0
A      1  0.7766710451925  0.0000687497600  0.4166053765021 1.0
A      1  0.8875511150788  0.0005921437328  0.5836945366632 1.0
A      1  0.7765496686772  0.0000545910734  0.7504927342809 1.0
A      1  0.8874149192017  0.9999484808001  0.9170771714819 1.0
END
