TITL AB-20764-5019-235 0.0000000000 4458.8459578500 -1495.0228951882 0 0  183 (P1) n - 1
REM
REM Run started: at Fri Oct 6 15:27:59 BST 2023 in /home/michal/install/eddp/airss/examples/1.11
REM pp3 from code version ## 0.9.3 July 2022 commit b0220bf5cbf550a3b7
REM
REM
REM
REM Total runtime: s
REM
REM
REM ./AB.cell (a186c3e4acc5915692489c59fabd1559)
REM ## AIRSS Version 0.9.3 July 2022 commit b0220bf5cbf550a3b7
REM compiler GCC version 11.4.0
REM options -cpp -imultiarch x86_64-linux-gnu -mtune=generic -march=x86-64 -g -Og -fpre-include=/usr/include/finclude/math-vector-fortran.h
REM cmdline: airss.pl -pp3 max 100 -seed AB 
REM seed -917435152 106036991 646251184 -1256169148 983356115 -1657192418 2065995442 -382642587
REM
REM AB.pp (46f9ffe235eb1beff4ce53cde2d82919)
REM 
CELL 1.54180   16.99142   16.35000   16.05000   90.00000   90.00000   90.00000
LATT -1
SFAC A  B  
A      1  0.9461256276336  0.0996425685831  0.0808463210178 1.0
A      1  0.0566697407269  0.0999284074788  0.2473556816463 1.0
A      1  0.6222882123367  0.5049700720723  0.4181090400840 1.0
A      1  0.6131308933228  0.7019126481676  0.4130780740017 1.0
A      1  0.4330809291516  0.3991562989861  0.4368358409983 1.0
A      1  0.5541782135816  0.6031487501176  0.5803431676564 1.0
A      1  0.5605389754132  0.4107906745522  0.5784930111176 1.0
B      2  0.3700830171109  0.5448396963008  0.5445286647054 1.0
B      2  0.3835993926080  0.4417210834500  0.6157024462779 1.0
B      2  0.5001414122482  0.3002353167033  0.6637892747379 1.0
B      2  0.4987611008979  0.4915334723920  0.3340311537658 1.0
A      1  0.9443619267390  0.0999186834774  0.4141149669432 1.0
A      1  0.0540410223971  0.0988161841235  0.5810075910776 1.0
A      1  0.9455264125199  0.0994870826554  0.7476546933110 1.0
A      1  0.0569573517018  0.0996580798589  0.9144520194068 1.0
A      1  0.2785155975299  0.1001166654826  0.0818121619860 1.0
A      1  0.3895942351957  0.1010236667682  0.2478850054994 1.0
A      1  0.2783621166460  0.1000668297680  0.4151669218943 1.0
A      1  0.3896052575292  0.0943554250487  0.5822401182795 1.0
A      1  0.2769051780098  0.0981976175004  0.7481127175696 1.0
A      1  0.3888219496830  0.0976213603368  0.9178529377856 1.0
A      1  0.1122124618479  0.2001188645997  0.0809574446650 1.0
A      1  0.2232884967479  0.2001180229996  0.2473586163979 1.0
A      1  0.1099033207984  0.1992211760950  0.4136513180664 1.0
A      1  0.2168093815779  0.1957344231782  0.5813742087070 1.0
A      1  0.1114639986476  0.1996370871258  0.7484403259781 1.0
A      1  0.2235013779827  0.1996172941049  0.9148959891443 1.0
A      1  0.9455356902959  0.2998482767054  0.0809785941701 1.0
A      1  0.0563614892713  0.2999857346407  0.2474154654912 1.0
A      1  0.9451676361948  0.2998661021488  0.4141625142893 1.0
A      1  0.0566571492608  0.3004265656686  0.5807199770878 1.0
A      1  0.9464905106925  0.3000135042275  0.7476809169234 1.0
A      1  0.0573584872542  0.3000355833640  0.9141699686669 1.0
A      1  0.6127869155731  0.0988680628132  0.0805335292042 1.0
A      1  0.7243647785090  0.0993086671461  0.2466653426621 1.0
A      1  0.6134457789871  0.0988081162101  0.4111407825422 1.0
A      1  0.7248205062856  0.0987486879575  0.5805802589277 1.0
A      1  0.6119646642825  0.1003698659037  0.7463982871571 1.0
A      1  0.7235100858471  0.1001545008859  0.9136937643730 1.0
A      1  0.4458055832047  0.2005903692455  0.0830821807680 1.0
A      1  0.5575336412118  0.1980480474616  0.2471690723286 1.0
A      1  0.4448822798211  0.1995497666471  0.4133037551568 1.0
A      1  0.5599218986814  0.1923045195652  0.5735322138491 1.0
A      1  0.4415139559644  0.1916415069478  0.7549977115813 1.0
A      1  0.5566302384065  0.1990769631479  0.9150844142593 1.0
A      1  0.2789266245454  0.3005988352568  0.0824342736109 1.0
A      1  0.3914708580927  0.3042007441026  0.2516302327401 1.0
A      1  0.2736011330450  0.2984885814254  0.4126723207963 1.0
A      1  0.3775757609172  0.2848167229364  0.5796103739999 1.0
A      1  0.2789996479736  0.2993347207042  0.7484127127612 1.0
A      1  0.3897200079215  0.2988003919953  0.9176134949085 1.0
A      1  0.1113241308316  0.3999393806170  0.0802762821788 1.0
A      1  0.2209084773033  0.4002273104411  0.2469608112548 1.0
A      1  0.1109671640817  0.4005267009419  0.4141130668292 1.0
A      1  0.2258886742692  0.4013536253295  0.5792663336162 1.0
A      1  0.1132798840385  0.3999522311426  0.7467222655545 1.0
A      1  0.2238171138974  0.3999012376040  0.9132795144182 1.0
A      1  0.9454484262326  0.5002201353694  0.0807082318943 1.0
A      1  0.0561644826698  0.5006460756851  0.2471422640367 1.0
A      1  0.9459547041533  0.5004174174474  0.4142995633477 1.0
A      1  0.0577145934937  0.5001078325080  0.5806729702197 1.0
A      1  0.9467356781940  0.5003238226832  0.7474541531349 1.0
A      1  0.0572827115940  0.5000477552803  0.9137182640226 1.0
A      1  0.7803622306334  0.1987794067988  0.0810239091219 1.0
A      1  0.8908323169671  0.1995659489503  0.2478514925747 1.0
A      1  0.7775338135602  0.2004938857753  0.4147416231135 1.0
A      1  0.8895944128601  0.2005227981288  0.5807064506172 1.0
A      1  0.7809315289688  0.1991326761821  0.7474758583373 1.0
A      1  0.8914009439002  0.1996014413377  0.9142682638384 1.0
A      1  0.6146374088422  0.2969221373794  0.0781359676334 1.0
A      1  0.7261097974449  0.2983668761540  0.2477490342835 1.0
A      1  0.6090548332054  0.3042674521291  0.4128754557838 1.0
A      1  0.7217021605374  0.3007583454355  0.5815590577584 1.0
A      1  0.6201434208879  0.3001300888332  0.7548032376116 1.0
A      1  0.7270763013122  0.2997604127490  0.9163064618076 1.0
A      1  0.4454930345990  0.4006708501945  0.0810634942670 1.0
A      1  0.5633404909706  0.3929752197164  0.2381162154118 1.0
A      1  0.4443793472329  0.4046220130431  0.7607675733802 1.0
A      1  0.5584793900966  0.3998928176181  0.9174186974845 1.0
A      1  0.2756031947459  0.5005858755904  0.0785973663848 1.0
A      1  0.3812744773452  0.5028395517952  0.2407027398066 1.0
A      1  0.2768520626312  0.5024975592364  0.4120207682453 1.0
A      1  0.2798954324662  0.5003565790674  0.7447822470439 1.0
A      1  0.3886354560512  0.5024517656556  0.9176350354410 1.0
A      1  0.1110822358922  0.6006755660635  0.0800329497737 1.0
A      1  0.2204067269958  0.6025922642462  0.2464906813815 1.0
A      1  0.1114433507112  0.6009958883370  0.4139801527883 1.0
A      1  0.2238497768755  0.6005019573263  0.5803090374090 1.0
A      1  0.1125253611975  0.6001355445872  0.7469538568020 1.0
A      1  0.2227355074270  0.6004888719462  0.9128489002071 1.0
A      1  0.9454051514447  0.7004707796526  0.0804908003256 1.0
A      1  0.0559637970273  0.7012029300257  0.2470870685168 1.0
A      1  0.9465389496857  0.7012219735197  0.4139936665760 1.0
A      1  0.0570750865353  0.7002290342499  0.5807910517817 1.0
A      1  0.9459951057978  0.7003270134051  0.7475498531887 1.0
A      1  0.0565365476020  0.7002310219267  0.9138287071374 1.0
A      1  0.7792425023291  0.4001745619338  0.0817165772299 1.0
A      1  0.8906464603847  0.4003016450005  0.2476730553006 1.0
A      1  0.7803981472142  0.3996866059013  0.4148403304845 1.0
A      1  0.8909643311792  0.4000000023527  0.5810382286990 1.0
A      1  0.7816375277488  0.4007092039832  0.7482373107120 1.0
A      1  0.8915061568784  0.4002643936497  0.9146420125251 1.0
A      1  0.6132341124934  0.5011913836541  0.0797073631997 1.0
A      1  0.7243110707268  0.5004701193716  0.2477692170691 1.0
A      1  0.7273760686015  0.5020014622413  0.5832145292174 1.0
A      1  0.6133676734423  0.5002839127036  0.7483784423051 1.0
A      1  0.7244537745702  0.4999745500223  0.9142626005094 1.0
A      1  0.4458980533241  0.6013667282697  0.0802811448909 1.0
A      1  0.5588490577644  0.6040628630085  0.2436138869698 1.0
A      1  0.4443764662642  0.5995263519377  0.7444776964748 1.0
A      1  0.5562618515366  0.6000011974305  0.9129959461022 1.0
A      1  0.2787483375924  0.7001726030305  0.0802128908899 1.0
A      1  0.3894224601407  0.7015247008564  0.2470152176458 1.0
A      1  0.2774446924009  0.7022028772604  0.4138093717637 1.0
A      1  0.3884994058639  0.7032143594837  0.5818414415548 1.0
A      1  0.2783002812014  0.7005060661878  0.7475935084339 1.0
A      1  0.3898892893778  0.7003438474041  0.9134320407337 1.0
A      1  0.1121972467132  0.8002504351463  0.0806404570430 1.0
A      1  0.2229415448268  0.8013050445947  0.2470777478232 1.0
A      1  0.1119642368335  0.8010337507152  0.4138776686129 1.0
A      1  0.2222129068353  0.8003283528191  0.5808757744520 1.0
A      1  0.1119298135770  0.8001287204289  0.7476086458017 1.0
A      1  0.2229746359973  0.8000262176581  0.9143006395487 1.0
A      1  0.9457937086561  0.9000205616265  0.0805921779212 1.0
A      1  0.0565731267951  0.9005372605090  0.2473466313707 1.0
A      1  0.9455748765040  0.9004696117779  0.4140122513100 1.0
A      1  0.0557821185938  0.8995746660973  0.5808574862388 1.0
A      1  0.9452253959455  0.8998416797539  0.7475073029374 1.0
A      1  0.0563473667141  0.8998932826519  0.9141989982835 1.0
A      1  0.7792724277776  0.6004389861746  0.0807113842511 1.0
A      1  0.8905929432837  0.6005214375996  0.2470799412530 1.0
A      1  0.7826580021308  0.6024917537996  0.4141547593909 1.0
A      1  0.8918207123885  0.6006618919482  0.5812040311325 1.0
A      1  0.7800056001975  0.6008549009251  0.7482081868383 1.0
A      1  0.8906057734247  0.6001136297020  0.9142019627487 1.0
A      1  0.6129902328775  0.7012534999372  0.0790413550612 1.0
A      1  0.7244022577636  0.7008907307590  0.2470020520158 1.0
A      1  0.4436305161247  0.6094064957476  0.4160080431530 1.0
A      1  0.7233947996783  0.7000602383239  0.5804766859849 1.0
A      1  0.6124240659930  0.6998636126866  0.7471513109330 1.0
A      1  0.7235246332184  0.6999653127425  0.9137604168630 1.0
A      1  0.4456628089022  0.8003961255755  0.0806122187053 1.0
A      1  0.5566454315397  0.8012378542592  0.2467365686262 1.0
A      1  0.4456470923571  0.8035975828132  0.4137212031072 1.0
A      1  0.5566870780563  0.8002829103836  0.5804353521659 1.0
A      1  0.4459074940136  0.7992766033744  0.7477595515759 1.0
A      1  0.5567057284255  0.8001192515243  0.9136281730474 1.0
A      1  0.2788939054903  0.9002651808628  0.0809276378963 1.0
A      1  0.3895268419078  0.9010306672813  0.2473177987089 1.0
A      1  0.2786024520426  0.9010379008808  0.4142423875484 1.0
A      1  0.3893172764802  0.8992063970585  0.5810245104664 1.0
A      1  0.2785801299195  0.8993612337411  0.7478099681006 1.0
A      1  0.3897080090504  0.8992307670163  0.9147283457878 1.0
A      1  0.1123363286500  0.9999514834916  0.0810123140723 1.0
A      1  0.2230983607061  0.0005935519819  0.2479392909892 1.0
A      1  0.1116217466914  0.0003249876079  0.4143563112526 1.0
A      1  0.2218013042955  0.9984386199901  0.5811243305533 1.0
A      1  0.1114094566487  0.9994620335734  0.7476077077118 1.0
A      1  0.2227182566192  0.9993415033887  0.9146265435883 1.0
A      1  0.7792788379546  0.8003044900322  0.0803547159432 1.0
A      1  0.8901378231896  0.8005528536767  0.2472344877471 1.0
A      1  0.7795566290628  0.8008971028614  0.4138607181794 1.0
A      1  0.8900131065480  0.7997728423308  0.5807145375859 1.0
A      1  0.7790377758015  0.7999664391639  0.7472664627968 1.0
A      1  0.8899173467555  0.8000412437024  0.9139228792450 1.0
A      1  0.6125262454656  0.9000766350899  0.0801715063403 1.0
A      1  0.7235386570255  0.9001919840506  0.2468984688983 1.0
A      1  0.6129446892090  0.9003468104526  0.4134967455492 1.0
A      1  0.7236750705232  0.8994066207574  0.5805645739218 1.0
A      1  0.6127245573266  0.8996650717829  0.7474130978555 1.0
A      1  0.7234042330482  0.8999587424166  0.9138928069321 1.0
A      1  0.4458064273269  0.9999463178931  0.0816416776823 1.0
A      1  0.5565729458921  0.9995622154968  0.2468106434747 1.0
A      1  0.4459375971066  0.0009202200214  0.4138786628134 1.0
A      1  0.5571909686943  0.9973873403984  0.5804565715961 1.0
A      1  0.4455856041960  0.9968143673571  0.7485384808404 1.0
A      1  0.5566536097784  0.9998490470897  0.9138467937194 1.0
A      1  0.7793865666589  0.9996075070577  0.0802181944633 1.0
A      1  0.8902726561068  0.9998885178122  0.2471008500066 1.0
A      1  0.7792502380277  0.9999247072447  0.4136795142780 1.0
A      1  0.8895719983741  0.9993719851840  0.5809055832591 1.0
A      1  0.7787419535840  0.9996690743748  0.7475505699633 1.0
A      1  0.8900483806302  0.9999409380055  0.9140464520087 1.0
END
