TITL AB-20764-5019-577 0.0000000000 4458.8459578500 -1495.6491569267 0 0  183 (P1) n - 1
REM
REM Run started: at Fri Oct 6 15:40:46 BST 2023 in /home/michal/install/eddp/airss/examples/1.11
REM pp3 from code version ## 0.9.3 July 2022 commit b0220bf5cbf550a3b7
REM
REM
REM
REM Total runtime: s
REM
REM
REM ./AB.cell (a186c3e4acc5915692489c59fabd1559)
REM ## AIRSS Version 0.9.3 July 2022 commit b0220bf5cbf550a3b7
REM compiler GCC version 11.4.0
REM options -cpp -imultiarch x86_64-linux-gnu -mtune=generic -march=x86-64 -g -Og -fpre-include=/usr/include/finclude/math-vector-fortran.h
REM cmdline: airss.pl -pp3 max 100 -seed AB 
REM seed -536775048 1093020363 -1188716562 355852079 -1413739444 170132834 -691322488 -948270010
REM
REM AB.pp (46f9ffe235eb1beff4ce53cde2d82919)
REM 
CELL 1.54180   16.99142   16.35000   16.05000   90.00000   90.00000   90.00000
LATT -1
SFAC A  B  
A      1  0.9455036872728  0.1011612104718  0.0838423851978 1.0
A      1  0.0561811634786  0.1004971948351  0.2503594686922 1.0
A      1  0.5927526634818  0.5191469002075  0.4237002134421 1.0
A      1  0.5547663569526  0.4006502512479  0.5832639860959 1.0
A      1  0.4564438004526  0.3907725927138  0.4063388059829 1.0
A      1  0.5555572446607  0.6071389937926  0.5897391434449 1.0
A      1  0.3934532525063  0.5080413515625  0.5963169143505 1.0
B      2  0.4243378688117  0.5471287138944  0.4399660575859 1.0
B      2  0.3390263784914  0.4031583050419  0.4991987079090 1.0
B      2  0.4730210726287  0.6468177720517  0.3811797793496 1.0
B      2  0.6612259001343  0.4093311550876  0.3422436285104 1.0
A      1  0.9458821302324  0.1003087573136  0.4174975869766 1.0
A      1  0.0567533938064  0.1005678207281  0.5841642615991 1.0
A      1  0.9456482543492  0.1010651252435  0.7507172854287 1.0
A      1  0.0564285971509  0.1008926338217  0.9170929129921 1.0
A      1  0.2787745010079  0.1007077936222  0.0835156359159 1.0
A      1  0.3894917630919  0.1007405188436  0.2505998966959 1.0
A      1  0.2780348744110  0.0982096690438  0.4171588147474 1.0
A      1  0.3893386497493  0.0976723005230  0.5851170746168 1.0
A      1  0.2786926911952  0.1008086028434  0.7507777006670 1.0
A      1  0.3895114893312  0.1003652502168  0.9182524003130 1.0
A      1  0.1112518734855  0.2009450791295  0.0834665180216 1.0
A      1  0.2216917233765  0.1988795764216  0.2481311694411 1.0
A      1  0.1113187682749  0.1992243584096  0.4171555159650 1.0
A      1  0.2235556696531  0.2008731162688  0.5834308843769 1.0
A      1  0.1120672862313  0.2010062496782  0.7506696083576 1.0
A      1  0.2227307795623  0.2005129843833  0.9172719827126 1.0
A      1  0.9452206185674  0.3014847281769  0.0843694739191 1.0
A      1  0.0570269035624  0.3011735327759  0.2507322798609 1.0
A      1  0.9478875276562  0.3001300078088  0.4177159171016 1.0
A      1  0.0557963789324  0.3000437134284  0.5847778283087 1.0
A      1  0.9449750447551  0.3007194856189  0.7516251764899 1.0
A      1  0.0563561769877  0.3008807920294  0.9179789843928 1.0
A      1  0.6122960761219  0.1013520412051  0.0847903599741 1.0
A      1  0.7232570892809  0.1010405992361  0.2510411299828 1.0
A      1  0.6125680694526  0.0973607422048  0.4178809231316 1.0
A      1  0.7238235634195  0.1007479668538  0.5841732734958 1.0
A      1  0.6131585166752  0.1001635496855  0.7521918490616 1.0
A      1  0.7234983318444  0.1011106130812  0.9178676949487 1.0
A      1  0.4457069728419  0.2009183343898  0.0837645077951 1.0
A      1  0.5563077252374  0.2022291093573  0.2519940066891 1.0
A      1  0.4441040446052  0.1969332569165  0.4188783023698 1.0
A      1  0.5570155658535  0.1972463516295  0.5878668374767 1.0
A      1  0.4460987524198  0.1984876700650  0.7542957704906 1.0
A      1  0.5569220360803  0.2008170228572  0.9177954924456 1.0
A      1  0.2773466285348  0.3005289747831  0.0828751001155 1.0
A      1  0.3876753866720  0.2995014414951  0.2471247019775 1.0
A      1  0.2756293827542  0.2941279195731  0.4112524301393 1.0
A      1  0.3933647842939  0.2928560585369  0.5910954636856 1.0
A      1  0.2782511270538  0.3006735392162  0.7521315537521 1.0
A      1  0.3893475441883  0.3002955133902  0.9175163455767 1.0
A      1  0.1115024361361  0.4014798870231  0.0840606053905 1.0
A      1  0.2232775904315  0.4012368908897  0.2493038983485 1.0
A      1  0.1128928009533  0.4007860318538  0.4182217900504 1.0
A      1  0.2175448020526  0.4007310731929  0.5898020418613 1.0
A      1  0.1101043182909  0.4010549755796  0.7530265545281 1.0
A      1  0.2228650631929  0.4011925844971  0.9182849695335 1.0
A      1  0.9450544019773  0.5016361445308  0.0841969040148 1.0
A      1  0.0570185903911  0.5013248179144  0.2508219914241 1.0
A      1  0.9467604368461  0.5018759631186  0.4173525006025 1.0
A      1  0.0555527711674  0.5019217489774  0.5843592082603 1.0
A      1  0.9450867034061  0.5018193294991  0.7511544286058 1.0
A      1  0.0563843848840  0.5015897275207  0.9178068832617 1.0
A      1  0.7793198714852  0.2008154054527  0.0834254894401 1.0
A      1  0.8907519838314  0.2009526257391  0.2506995788937 1.0
A      1  0.7806875445810  0.2000705134865  0.4173422544269 1.0
A      1  0.8900826985941  0.2008485457354  0.5842804822107 1.0
A      1  0.7789456124276  0.2007981157462  0.7512133712106 1.0
A      1  0.8900848987259  0.2010859365011  0.9175867564197 1.0
A      1  0.6126953305668  0.3003556806196  0.0816284574392 1.0
A      1  0.7247425457249  0.2992385922577  0.2484319222890 1.0
A      1  0.6132941551689  0.2892798778864  0.4249784772343 1.0
A      1  0.7238856837672  0.3006712502607  0.5863181468429 1.0
A      1  0.6117553128601  0.3009624960025  0.7509276591418 1.0
A      1  0.7236485462255  0.3012641614307  0.9165544576150 1.0
A      1  0.4425231832185  0.4014751096706  0.0804878654437 1.0
A      1  0.5516426153574  0.4015601870151  0.2377993582415 1.0
A      1  0.4453262927282  0.4002153810533  0.7531984545607 1.0
A      1  0.5566265977004  0.4012393996907  0.9169270603927 1.0
A      1  0.2784826612919  0.5017859330650  0.0846075348235 1.0
A      1  0.3907409023307  0.5043446722139  0.2548226938719 1.0
A      1  0.2725619259068  0.5079052497866  0.4107698262685 1.0
A      1  0.2775855100111  0.5010940810268  0.7532957171013 1.0
A      1  0.3894136926324  0.5018445242109  0.9177463191459 1.0
A      1  0.1114069413637  0.6016055100680  0.0833411180445 1.0
A      1  0.2218172206327  0.6035830969013  0.2476489655259 1.0
A      1  0.1103631170499  0.6033245827517  0.4169435036386 1.0
A      1  0.2233976433863  0.6004385636979  0.5833884953363 1.0
A      1  0.1120855385206  0.6012360501556  0.7505809982366 1.0
A      1  0.2229581098368  0.6017535279432  0.9177488388672 1.0
A      1  0.9458211283686  0.7020777147502  0.0833255547437 1.0
A      1  0.0562254965004  0.7021725119411  0.2501229360688 1.0
A      1  0.9443490735313  0.7012933098356  0.4172446302962 1.0
A      1  0.0561219552323  0.7010717432900  0.5839450190711 1.0
A      1  0.9453704514753  0.7012039173171  0.7500785710032 1.0
A      1  0.0565455860188  0.7015464631857  0.9167622530430 1.0
A      1  0.7790029789704  0.4012530671203  0.0825321649835 1.0
A      1  0.8899169563099  0.4014447291681  0.2512385471618 1.0
A      1  0.7868623163948  0.3994335027821  0.4233599762601 1.0
A      1  0.8912784868227  0.4011968441645  0.5868062559836 1.0
A      1  0.7784161084816  0.4016812939512  0.7505880663389 1.0
A      1  0.8901986402730  0.4013993421437  0.9172361757098 1.0
A      1  0.6129266890311  0.5021863342333  0.0803981736763 1.0
A      1  0.7270588108187  0.5071088040453  0.2431132527173 1.0
A      1  0.7204454017405  0.5011308412679  0.5825111905901 1.0
A      1  0.6113107710091  0.5013681585432  0.7505706560058 1.0
A      1  0.7237522004816  0.5016600771974  0.9159554645377 1.0
A      1  0.4454916433229  0.6011843957703  0.0842399186800 1.0
A      1  0.5585032231787  0.6022865007272  0.2476887561795 1.0
A      1  0.4461355525738  0.6040015609456  0.7560768372170 1.0
A      1  0.5571206549132  0.6020571112646  0.9179301216815 1.0
A      1  0.2788066221642  0.7019498574814  0.0834058465056 1.0
A      1  0.3899920539529  0.7021363187247  0.2498335074527 1.0
A      1  0.2820092027920  0.7014940626782  0.4161575936914 1.0
A      1  0.3905275022063  0.7022311603863  0.5816784609526 1.0
A      1  0.2791866106486  0.7009252664086  0.7500914820183 1.0
A      1  0.3895507881770  0.7022702676775  0.9186724365384 1.0
A      1  0.1123289905063  0.8014887009623  0.0835600497676 1.0
A      1  0.2231270864996  0.8017222624074  0.2503481435498 1.0
A      1  0.1124994032999  0.8009093512293  0.4170727403575 1.0
A      1  0.2230739725409  0.8002815207349  0.5835951442437 1.0
A      1  0.1122732029271  0.8010141120744  0.7503335151571 1.0
A      1  0.2230588095475  0.8013343344927  0.9168105207993 1.0
A      1  0.9458069681263  0.9016726032878  0.0836698913825 1.0
A      1  0.0565634932975  0.9012552958915  0.2502837577339 1.0
A      1  0.9461404953488  0.9009223559625  0.4172202997967 1.0
A      1  0.0566576822402  0.9006977916831  0.5839401935212 1.0
A      1  0.9458823806858  0.9011840073458  0.7506063753193 1.0
A      1  0.0566074846821  0.9011893700607  0.9170933911921 1.0
A      1  0.7800064984696  0.6035022036471  0.0809644445665 1.0
A      1  0.8913283093663  0.6026151513455  0.2503469090965 1.0
A      1  0.7757906552249  0.5991468048568  0.4156566247111 1.0
A      1  0.8885670928129  0.6008089589539  0.5830773751642 1.0
A      1  0.7783884050357  0.6013340495851  0.7497185339610 1.0
A      1  0.8903195826183  0.6016566965359  0.9164549385511 1.0
A      1  0.6128499522058  0.7023434175915  0.0833233147874 1.0
A      1  0.7241032656228  0.7036612068783  0.2499148143728 1.0
A      1  0.6144341024853  0.7084110023149  0.4179639447691 1.0
A      1  0.7236471816682  0.7017681233790  0.5839039061448 1.0
A      1  0.6132492613829  0.7029133581550  0.7524793896224 1.0
A      1  0.7237620522657  0.7020933443061  0.9167386593091 1.0
A      1  0.4458502934695  0.8016030546050  0.0841478278645 1.0
A      1  0.5564846311501  0.8020264335736  0.2504225113815 1.0
A      1  0.4461651880316  0.8032318479326  0.4175312333712 1.0
A      1  0.5570012173776  0.8035201666015  0.5851845315687 1.0
A      1  0.4456000355470  0.8014949265025  0.7508440575876 1.0
A      1  0.5564512471079  0.8019187788714  0.9177440147505 1.0
A      1  0.2789110515376  0.9012224342181  0.0836483206060 1.0
A      1  0.3896501571185  0.9014215420074  0.2505245259820 1.0
A      1  0.2786512842531  0.9003989772827  0.4173824501557 1.0
A      1  0.3893526679200  0.9005640980177  0.5844692331541 1.0
A      1  0.2787379649025  0.9008998615644  0.7505952324160 1.0
A      1  0.3897335405764  0.9012360678556  0.9175738532210 1.0
A      1  0.1122241516570  0.0012362205464  0.0836682192951 1.0
A      1  0.2229498103792  0.0004094939389  0.2502178629874 1.0
A      1  0.1119669004552  0.0001757521172  0.4171567195396 1.0
A      1  0.2226139609134  0.0002825019529  0.5842008273769 1.0
A      1  0.1121478099135  0.0009755217330  0.7506720221543 1.0
A      1  0.2230188350578  0.0008691743188  0.9170970613699 1.0
A      1  0.7793043767584  0.8024668136731  0.0835498104337 1.0
A      1  0.8902329076547  0.8021249180136  0.2501502456251 1.0
A      1  0.7803145940137  0.8018412510800  0.4172654313396 1.0
A      1  0.8901835021196  0.8012498352495  0.5840441270064 1.0
A      1  0.7794588174252  0.8016495403084  0.7505041819995 1.0
A      1  0.8901552987890  0.8015303192158  0.9169750505285 1.0
A      1  0.6124754096454  0.9017535700940  0.0842221274202 1.0
A      1  0.7232546764211  0.9020070784853  0.2507879709259 1.0
A      1  0.6130369486443  0.9025529653099  0.4173816351915 1.0
A      1  0.7238012705870  0.9013916811390  0.5841000831407 1.0
A      1  0.6128262272778  0.9015530581121  0.7515677176808 1.0
A      1  0.7234171380913  0.9015784483854  0.9174186384987 1.0
A      1  0.4455691431025  0.0011092619624  0.0842707056651 1.0
A      1  0.5561868202176  0.0015999765676  0.2505914729946 1.0
A      1  0.4453389733447  0.0000473644295  0.4175838486646 1.0
A      1  0.5566484633676  0.0003556515307  0.5850459545786 1.0
A      1  0.4457858526326  0.0002364472068  0.7515820719250 1.0
A      1  0.5565595202469  0.0013324524359  0.9181688305024 1.0
A      1  0.7790318408411  0.0015206727482  0.0841459768269 1.0
A      1  0.8899570223602  0.0012808980583  0.2505727760589 1.0
A      1  0.7799459370468  0.0008664245049  0.4174917053751 1.0
A      1  0.8903808415729  0.0009274083172  0.5841332154451 1.0
A      1  0.7794744048287  0.0011261061960  0.7508259799029 1.0
A      1  0.8900159141675  0.0012228359786  0.9173064893904 1.0
END
