TITL AB-20764-5019-595 0.0000000000 4458.8459578500 -1501.1950969722 0 0  183 (Pm) n - 1
REM
REM Run started: at Fri Oct 6 15:41:29 BST 2023 in /home/michal/install/eddp/airss/examples/1.11
REM pp3 from code version ## 0.9.3 July 2022 commit b0220bf5cbf550a3b7
REM
REM
REM
REM Total runtime: s
REM
REM
REM ./AB.cell (a186c3e4acc5915692489c59fabd1559)
REM ## AIRSS Version 0.9.3 July 2022 commit b0220bf5cbf550a3b7
REM compiler GCC version 11.4.0
REM options -cpp -imultiarch x86_64-linux-gnu -mtune=generic -march=x86-64 -g -Og -fpre-include=/usr/include/finclude/math-vector-fortran.h
REM cmdline: airss.pl -pp3 max 100 -seed AB 
REM seed -1332318881 -1284177375 -1882412356 -301539779 -1420556582 -2091052892 1868178663 -929607761
REM
REM AB.pp (46f9ffe235eb1beff4ce53cde2d82919)
REM 
CELL 1.54180   16.99142   16.35000   16.05000   90.00000   90.00000   90.00000
LATT -1
SFAC A  B  
A      1  0.9451927268760  0.0990087839127  0.0834545745703 1.0
A      1  0.0559892815890  0.0990087810486  0.2499498008207 1.0
A      1  0.3883035551673  0.4874826166927  0.5934766594868 1.0
A      1  0.5576739850442  0.3918946616436  0.5868460527109 1.0
A      1  0.4457249180762  0.4008220898599  0.4193710244521 1.0
A      1  0.6156079820483  0.4981312927278  0.4129748118377 1.0
A      1  0.4527803084641  0.5990083343081  0.4024430550301 1.0
B      2  0.5231153785548  0.5365648181048  0.5366882777435 1.0
B      2  0.5231138152386  0.6614529056535  0.5366881951357 1.0
B      2  0.5969245154053  0.5990096104797  0.6217022412643 1.0
B      2  0.3389657408022  0.5990090332468  0.5009382871114 1.0
A      1  0.9449257273915  0.0990087691386  0.4166466653116 1.0
A      1  0.0557287370660  0.0990088908075  0.5834671205816 1.0
A      1  0.9453319224886  0.0990088659507  0.7502125987952 1.0
A      1  0.0561234860365  0.0990088467568  0.9168098867931 1.0
A      1  0.2784287550634  0.0990087854888  0.0835860566644 1.0
A      1  0.3895614679687  0.0990086662876  0.2507192289257 1.0
A      1  0.2785663951307  0.0990087768861  0.4171421481744 1.0
A      1  0.3889996336336  0.0990088429638  0.5836786960197 1.0
A      1  0.2782747974827  0.0990088658926  0.7502721045037 1.0
A      1  0.3892392263508  0.0990088233906  0.9176272317519 1.0
A      1  0.1117918643485  0.1989468747277  0.0833270066361 1.0
A      1  0.2227727616205  0.1985017420784  0.2501006692374 1.0
A      1  0.1114439744550  0.1986408220678  0.4167001752215 1.0
A      1  0.2217753556981  0.1986555446782  0.5836973345993 1.0
A      1  0.1115304509466  0.1990642316053  0.7501574973719 1.0
A      1  0.2225648058702  0.1988178162868  0.9167084428332 1.0
A      1  0.9450580344276  0.2987776662287  0.0831782058645 1.0
A      1  0.0557604676111  0.2983781428469  0.2497233083802 1.0
A      1  0.9446779895673  0.2985380409532  0.4167184889165 1.0
A      1  0.0552201399522  0.2987093165084  0.5835032302356 1.0
A      1  0.9447493504124  0.2990772833318  0.7499935666412 1.0
A      1  0.0559531576697  0.2987587117593  0.9165629237433 1.0
A      1  0.6119138173277  0.0990087295732  0.0840644458559 1.0
A      1  0.7228648037113  0.0990087257233  0.2501911852303 1.0
A      1  0.6121325831328  0.0990086136283  0.4168071138549 1.0
A      1  0.7234691219714  0.0990088065964  0.5837813836673 1.0
A      1  0.6124260409135  0.0990088373508  0.7512037357296 1.0
A      1  0.7229248214204  0.0990088185015  0.9172771471494 1.0
A      1  0.4451691582838  0.1988565096992  0.0844193622082 1.0
A      1  0.5563251075467  0.1990262062399  0.2504852479406 1.0
A      1  0.4456792204989  0.1990975075355  0.4170095686423 1.0
A      1  0.5566616769716  0.1970676721928  0.5840870788136 1.0
A      1  0.4453195079430  0.1980555969298  0.7510945928403 1.0
A      1  0.5560060013506  0.1987036100110  0.9179171830634 1.0
A      1  0.2785196944599  0.2984941885484  0.0833761227287 1.0
A      1  0.3896245352647  0.2992291952687  0.2510337693969 1.0
A      1  0.2784026883048  0.2972725146636  0.4168828085059 1.0
A      1  0.3889654747014  0.2948503041014  0.5840928376013 1.0
A      1  0.2781760372222  0.2991523306108  0.7500873010428 1.0
A      1  0.3890327415905  0.2981913429856  0.9179844837434 1.0
A      1  0.1111996257330  0.3988138492666  0.0828771821050 1.0
A      1  0.2217343213769  0.3971235229933  0.2475163255933 1.0
A      1  0.1100059096634  0.3977036865851  0.4163294928113 1.0
A      1  0.2208559894503  0.3985017182390  0.5828500567960 1.0
A      1  0.1109776879329  0.3991257865140  0.7500959770202 1.0
A      1  0.2224855046561  0.3984703110618  0.9170817486553 1.0
A      1  0.9449122412250  0.4989050586159  0.0832183635217 1.0
A      1  0.0565969480097  0.4988837758492  0.2500693175820 1.0
A      1  0.9451584818550  0.4990368366695  0.4164062806800 1.0
A      1  0.0536221482830  0.4984838619816  0.5835970607924 1.0
A      1  0.9436096060020  0.4989471110333  0.7500720647882 1.0
A      1  0.0556143732809  0.4986402622178  0.9170692698941 1.0
A      1  0.7785820224495  0.1988393055883  0.0836560493227 1.0
A      1  0.8893647502334  0.1988745452765  0.2500154953898 1.0
A      1  0.7784395435262  0.1987613763130  0.4166835028516 1.0
A      1  0.8896277417502  0.1988018765589  0.5834625237145 1.0
A      1  0.7790758294742  0.1986983002708  0.7505029098387 1.0
A      1  0.8896267763130  0.1988474288977  0.9168784879975 1.0
A      1  0.6120654744658  0.2986256971872  0.0839767104306 1.0
A      1  0.7229976218805  0.2990550772005  0.2501594830135 1.0
A      1  0.6119680082162  0.2988038639043  0.4169314082135 1.0
A      1  0.7237442215643  0.2978977076203  0.5835393202372 1.0
A      1  0.6128327041759  0.2969475739183  0.7520290919840 1.0
A      1  0.7232507048553  0.2987038046896  0.9172439011245 1.0
A      1  0.4452821633021  0.3985788043128  0.0829203687668 1.0
A      1  0.5561349525108  0.3991361060474  0.2497743863243 1.0
A      1  0.4460465576304  0.3957381641949  0.7544642641355 1.0
A      1  0.5567568623139  0.3982856858817  0.9178199719494 1.0
A      1  0.2781767084999  0.4987641596439  0.0823667418936 1.0
A      1  0.3891965807281  0.4980212190621  0.2469564419626 1.0
A      1  0.2747962410614  0.4926690681087  0.4104498477352 1.0
A      1  0.2770293855099  0.4990690850108  0.7527951379382 1.0
A      1  0.3897965041183  0.4992038903186  0.9162493316162 1.0
A      1  0.1112347635591  0.5990087930708  0.0833628508617 1.0
A      1  0.2228559342442  0.5990087286007  0.2485121196231 1.0
A      1  0.1122792506899  0.5990087843025  0.4173483729650 1.0
A      1  0.2158751281055  0.5990089447746  0.5892294693598 1.0
A      1  0.1089688566512  0.5990088485309  0.7523412332956 1.0
A      1  0.2220504251980  0.5990087938591  0.9176785346889 1.0
A      1  0.9449122253985  0.6991124937556  0.0832184207263 1.0
A      1  0.0565969259606  0.6991337499012  0.2500693732066 1.0
A      1  0.9451584063470  0.6989806851794  0.4164063369500 1.0
A      1  0.0536220657906  0.6995338350242  0.5835971075583 1.0
A      1  0.9436095813478  0.6990705844838  0.7500721200384 1.0
A      1  0.0556143701112  0.6993773804482  0.9170693206237 1.0
A      1  0.7788126887616  0.3986048821003  0.0829494740240 1.0
A      1  0.8901413192820  0.3987317612485  0.2498021351481 1.0
A      1  0.7792929906360  0.3984298916771  0.4164040432295 1.0
A      1  0.8883055140123  0.3990936702917  0.5832222906285 1.0
A      1  0.7778649729817  0.3988008297388  0.7496286589257 1.0
A      1  0.8894338627190  0.3987766921768  0.9165170186041 1.0
A      1  0.6125056462216  0.4983159228909  0.0816924420733 1.0
A      1  0.7246920745173  0.4986706418272  0.2483012924789 1.0
A      1  0.7196798018093  0.4989160639992  0.5821899072830 1.0
A      1  0.6111062045983  0.4971377547855  0.7507406717312 1.0
A      1  0.7232295787993  0.4988586470688  0.9160829309447 1.0
A      1  0.4453308121111  0.5990087510471  0.0818125910723 1.0
A      1  0.5597836783824  0.5990086397299  0.2439457741502 1.0
A      1  0.4474089118153  0.5990089976553  0.7466358233109 1.0
A      1  0.5564515929624  0.5990088175881  0.9157711051464 1.0
A      1  0.2781766969136  0.6992533917620  0.0823668507630 1.0
A      1  0.3891965628483  0.6999960226734  0.2469566864563 1.0
A      1  0.2747959355230  0.7053486274510  0.4104498529903 1.0
A      1  0.3883027112230  0.7105354337832  0.5934771964925 1.0
A      1  0.2770291131903  0.6989487189199  0.7527954980098 1.0
A      1  0.3897964720085  0.6988137831908  0.9162494936154 1.0
A      1  0.1111995704859  0.7992037383088  0.0828772704206 1.0
A      1  0.2217342548111  0.8008940032008  0.2475163562380 1.0
A      1  0.1100057176383  0.8003139590889  0.4163295428365 1.0
A      1  0.2208556031515  0.7995162228594  0.5828501699985 1.0
A      1  0.1109775517923  0.7988919788044  0.7500961012207 1.0
A      1  0.2224854358532  0.7995473940303  0.9170819504905 1.0
A      1  0.9450579945817  0.8992399032520  0.0831783029201 1.0
A      1  0.0557604067814  0.8996394238867  0.2497233686620 1.0
A      1  0.9446778674905  0.8994795165812  0.4167185446347 1.0
A      1  0.0552200005952  0.8993084979249  0.5835033000720 1.0
A      1  0.9447493234693  0.8989404686156  0.7499936743284 1.0
A      1  0.0559531258967  0.8992589868467  0.9165630268221 1.0
A      1  0.7786619502736  0.5990087594668  0.0823992108064 1.0
A      1  0.8904849522311  0.5990087541447  0.2494155320481 1.0
A      1  0.7797472172885  0.5990086810585  0.4156797037256 1.0
A      1  0.8873673487241  0.5990088052773  0.5831964737304 1.0
A      1  0.7766452171446  0.5990088590976  0.7490408336908 1.0
A      1  0.8893574347108  0.5990088161127  0.9162563582697 1.0
A      1  0.6125056287525  0.6997015522111  0.0816926000566 1.0
A      1  0.7246919745064  0.6993467503645  0.2483015187663 1.0
A      1  0.6156078306566  0.6998856168903  0.4129753956338 1.0
A      1  0.7196801694328  0.6991018026290  0.5821901293725 1.0
A      1  0.6111063698953  0.7008801926668  0.7507411770087 1.0
A      1  0.7232296345809  0.6991590062952  0.9160831335047 1.0
A      1  0.4452821270238  0.7994386760940  0.0829206515295 1.0
A      1  0.5561349390360  0.7988811183608  0.2497747574541 1.0
A      1  0.4457247897214  0.7971949162023  0.4193714063773 1.0
A      1  0.5576739221216  0.8061225803967  0.5868464106995 1.0
A      1  0.4460465545498  0.8022796254548  0.7544645477491 1.0
A      1  0.5567568205131  0.7997319853911  0.9178202809024 1.0
A      1  0.2785196778186  0.8995233934350  0.0833762638131 1.0
A      1  0.3896245294269  0.8987880881777  0.2510339934595 1.0
A      1  0.2784026274458  0.9007450591212  0.4168829405925 1.0
A      1  0.3889654230467  0.9031674591876  0.5840929832704 1.0
A      1  0.2781759927666  0.8988653939179  0.7500874221007 1.0
A      1  0.3890326962357  0.8998263137168  0.9179846840010 1.0
A      1  0.1117918529250  0.9990707148364  0.0833270594054 1.0
A      1  0.2227727458659  0.9995157596351  0.2501007355763 1.0
A      1  0.1114439284372  0.9993767797393  0.4167002208812 1.0
A      1  0.2217753066325  0.9993622551558  0.5836973965835 1.0
A      1  0.1115304312825  0.9989535111041  0.7501575487501 1.0
A      1  0.2225647867188  0.9991998707908  0.9167085042790 1.0
A      1  0.7788126603614  0.7994126236858  0.0829496630504 1.0
A      1  0.8901412640186  0.7992857357612  0.2498022411921 1.0
A      1  0.7792928649747  0.7995874904342  0.4164041547173 1.0
A      1  0.8883055485631  0.7989240653934  0.5832223797563 1.0
A      1  0.7778650588973  0.7992169488942  0.7496288723876 1.0
A      1  0.8894338822253  0.7992409666929  0.9165171542010 1.0
A      1  0.6120654384511  0.8993917581358  0.0839769438467 1.0
A      1  0.7229975751979  0.8989623547341  0.2501596434520 1.0
A      1  0.6119678872404  0.8992132635456  0.4169316429522 1.0
A      1  0.7237441602459  0.9001199101974  0.5835394737935 1.0
A      1  0.6128327053816  0.9010701444842  0.7520292664403 1.0
A      1  0.7232506859341  0.8993138285331  0.9172440739279 1.0
A      1  0.4451691453076  0.9991609731830  0.0844194833881 1.0
A      1  0.5563250987754  0.9989910969926  0.2504853720202 1.0
A      1  0.4456792007626  0.9989197984843  0.4170096535855 1.0
A      1  0.5566616616593  0.0009497296847  0.5840871786318 1.0
A      1  0.4453194913602  0.9999621344214  0.7510947007194 1.0
A      1  0.5560059870682  0.9993140130154  0.9179172986179 1.0
A      1  0.7785819985837  0.9991782060562  0.0836561294512 1.0
A      1  0.8893647119177  0.9991429893677  0.2500155466041 1.0
A      1  0.7784394706615  0.9992560215610  0.4166835721817 1.0
A      1  0.8896276837245  0.9992158471171  0.5834625782942 1.0
A      1  0.7790758192440  0.9993194172851  0.7505029903580 1.0
A      1  0.8896267592923  0.9991702429672  0.9168785547137 1.0
END
