TITL AB-20764-5019-333 0.0000000000 4458.8459578500 -1500.1731397640 0 0  183 (P1) n - 1
REM
REM Run started: at Fri Oct 6 15:31:48 BST 2023 in /home/michal/install/eddp/airss/examples/1.11
REM pp3 from code version ## 0.9.3 July 2022 commit b0220bf5cbf550a3b7
REM
REM
REM
REM Total runtime: s
REM
REM
REM ./AB.cell (a186c3e4acc5915692489c59fabd1559)
REM ## AIRSS Version 0.9.3 July 2022 commit b0220bf5cbf550a3b7
REM compiler GCC version 11.4.0
REM options -cpp -imultiarch x86_64-linux-gnu -mtune=generic -march=x86-64 -g -Og -fpre-include=/usr/include/finclude/math-vector-fortran.h
REM cmdline: airss.pl -pp3 max 100 -seed AB 
REM seed -1099512665 -1810213529 -346289476 1837135387 -481851321 475819040 -1292020503 1148377910
REM
REM AB.pp (46f9ffe235eb1beff4ce53cde2d82919)
REM 
CELL 1.54180   16.99142   16.35000   16.05000   90.00000   90.00000   90.00000
LATT -1
SFAC A  B  
A      1  0.9447688690757  0.1003122299793  0.0815443758073 1.0
A      1  0.0559525982342  0.1002637092264  0.2481174782301 1.0
A      1  0.5638843194812  0.3988129787256  0.5857807738512 1.0
A      1  0.6110004048984  0.4979893737844  0.4147381627132 1.0
A      1  0.3843878987359  0.4987943301659  0.5799386828916 1.0
A      1  0.4473009599244  0.6028115862378  0.4202298313233 1.0
A      1  0.4398766924506  0.4081866909608  0.4075602198030 1.0
B      2  0.4970907605796  0.2966573448728  0.4946585768245 1.0
B      2  0.6008194148662  0.5997868473841  0.5425256362333 1.0
B      2  0.5239519843476  0.5417730045347  0.6261808581307 1.0
B      2  0.5264925404250  0.6646958151771  0.6245606721172 1.0
A      1  0.9452553875996  0.1000753961761  0.4148090214343 1.0
A      1  0.0555347449256  0.1000020639049  0.5815529529687 1.0
A      1  0.9447791952621  0.1002418842380  0.7484787036937 1.0
A      1  0.0557918081899  0.1003411194009  0.9149710426504 1.0
A      1  0.2769595958599  0.1002120956027  0.0800820984719 1.0
A      1  0.3869484738236  0.0973031270717  0.2430883613166 1.0
A      1  0.2750080515657  0.0982512401064  0.4141479808812 1.0
A      1  0.3894210985432  0.1020984739154  0.5797914351929 1.0
A      1  0.2782024584406  0.1008491178678  0.7475318356673 1.0
A      1  0.3889220134540  0.1003302540669  0.9142866799461 1.0
A      1  0.1110043155070  0.2004547283129  0.0816926196939 1.0
A      1  0.2225846856300  0.2002285009941  0.2481794918146 1.0
A      1  0.1109731298302  0.2005914605971  0.4147176878778 1.0
A      1  0.2200866385100  0.1995615289489  0.5816837614029 1.0
A      1  0.1105548984005  0.2003055262248  0.7485093923999 1.0
A      1  0.2220445225646  0.2001896463733  0.9151127205468 1.0
A      1  0.9446129719348  0.3005275881677  0.0816291838745 1.0
A      1  0.0560661253482  0.3004120321042  0.2481657001833 1.0
A      1  0.9450456485157  0.3005943235410  0.4148834428998 1.0
A      1  0.0548836212700  0.3003871314323  0.5817956576037 1.0
A      1  0.9443533731798  0.3004284336602  0.7485727660974 1.0
A      1  0.0557809698336  0.3004616351337  0.9151997112664 1.0
A      1  0.6114358178753  0.1002058650331  0.0812737831403 1.0
A      1  0.7222364171628  0.1007112954646  0.2483581999853 1.0
A      1  0.6108315226479  0.1018391251548  0.4154073179789 1.0
A      1  0.7248691275238  0.0993589498349  0.5818362414698 1.0
A      1  0.6128741057430  0.0986762225962  0.7514083485426 1.0
A      1  0.7230930644615  0.1003586008983  0.9157209649236 1.0
A      1  0.4442840627203  0.2003151705252  0.0804263962178 1.0
A      1  0.5556622514112  0.2003604672641  0.2460987924930 1.0
A      1  0.4386756269650  0.1903911100776  0.4042516929661 1.0
A      1  0.5609697165896  0.1946312184078  0.5891621900334 1.0
A      1  0.4448811264791  0.2008472487660  0.7493780493284 1.0
A      1  0.5559121178089  0.2002779762121  0.9155714087872 1.0
A      1  0.2774727188452  0.3004507236674  0.0811539523706 1.0
A      1  0.3885254041753  0.3005805223124  0.2462078972349 1.0
A      1  0.2784137276541  0.3004011693418  0.4157903585357 1.0
A      1  0.3803351738023  0.3008377505218  0.5890717376017 1.0
A      1  0.2755153505246  0.3009191151209  0.7512997138987 1.0
A      1  0.3890031346963  0.3008961369035  0.9147155932825 1.0
A      1  0.1109464488622  0.4005920484915  0.0819472645950 1.0
A      1  0.2224622437574  0.4004804336963  0.2483886904190 1.0
A      1  0.1106559477308  0.4005632224439  0.4147503480758 1.0
A      1  0.2186837847374  0.4009810366701  0.5818286795866 1.0
A      1  0.1099975376955  0.4007878714901  0.7487981003214 1.0
A      1  0.2217370035013  0.4009536322697  0.9156839989367 1.0
A      1  0.9446163990995  0.5007334045974  0.0819430973328 1.0
A      1  0.0556272447151  0.5006171155368  0.2483763160307 1.0
A      1  0.9443592503348  0.5011331708298  0.4151765323810 1.0
A      1  0.0542701237540  0.5010529239613  0.5817733921849 1.0
A      1  0.9442819463243  0.5007855981822  0.7486786706875 1.0
A      1  0.0555958097652  0.5007127902668  0.9153161622364 1.0
A      1  0.7784337084073  0.2000706015659  0.0812436512069 1.0
A      1  0.8899979538207  0.2002121372951  0.2479067967564 1.0
A      1  0.7805307616730  0.1994211246430  0.4143774870746 1.0
A      1  0.8901753584385  0.2000976794729  0.5817942064679 1.0
A      1  0.7783973992654  0.2000754718461  0.7486132049962 1.0
A      1  0.8895126570165  0.2004084495743  0.9150065164336 1.0
A      1  0.6115665176873  0.3005425562788  0.0810336836842 1.0
A      1  0.7248308551450  0.3004850313283  0.2454153375827 1.0
A      1  0.6197192502344  0.2997259917509  0.4080167920325 1.0
A      1  0.7249632398387  0.2990577744413  0.5810823863442 1.0
A      1  0.6125788632635  0.3000797550906  0.7509782072893 1.0
A      1  0.7231417897447  0.3005064064635  0.9155715641275 1.0
A      1  0.4443584380477  0.4007558832236  0.0811653233410 1.0
A      1  0.5556199256686  0.4003078339192  0.2467188974377 1.0
A      1  0.4458908778286  0.4021890483275  0.7478957435293 1.0
A      1  0.5558140816734  0.4007281548423  0.9157241523185 1.0
A      1  0.2772644642259  0.5006835214061  0.0813009790914 1.0
A      1  0.3877585330773  0.5030858965325  0.2458844705919 1.0
A      1  0.2753353523390  0.5022801495877  0.4140855990031 1.0
A      1  0.2770509770619  0.5002817676417  0.7484033368760 1.0
A      1  0.3885632151325  0.5004871556096  0.9154894015296 1.0
A      1  0.1109148167233  0.6007088283683  0.0815217496702 1.0
A      1  0.2212175949612  0.6010250507597  0.2477085354765 1.0
A      1  0.1099020396192  0.6010095329980  0.4149210583649 1.0
A      1  0.2201215051757  0.6009198015260  0.5818054786064 1.0
A      1  0.1106844162025  0.6006222864771  0.7486179198270 1.0
A      1  0.2221982685943  0.6008145127873  0.9149645461586 1.0
A      1  0.9444107011540  0.7006296424508  0.0819954566939 1.0
A      1  0.0549198445755  0.7005663691642  0.2482442608756 1.0
A      1  0.9436300552685  0.7006558541231  0.4151312350297 1.0
A      1  0.0546112292943  0.7008202715597  0.5818027283064 1.0
A      1  0.9447591825886  0.7007645431975  0.7487700586011 1.0
A      1  0.0556627214160  0.7006995939282  0.9151810195460 1.0
A      1  0.7784321057069  0.4009110420400  0.0814554438988 1.0
A      1  0.8898558489729  0.4006710456928  0.2482214327554 1.0
A      1  0.7800070250689  0.4014090144740  0.4150744753324 1.0
A      1  0.8892949458316  0.4007320719838  0.5820177765307 1.0
A      1  0.7783032046015  0.4003605536179  0.7486739412773 1.0
A      1  0.8894931829936  0.4005649499829  0.9151371563084 1.0
A      1  0.6113964845176  0.5008344527822  0.0821623264778 1.0
A      1  0.7224101798039  0.5002871548146  0.2487421609236 1.0
A      1  0.7231500776303  0.5015106858169  0.5830253089846 1.0
A      1  0.6137171096900  0.5018402543898  0.7521450169861 1.0
A      1  0.7232071802103  0.5007051842337  0.9163429246181 1.0
A      1  0.4445929938167  0.6010496601525  0.0815103614178 1.0
A      1  0.5553324646015  0.6004320863023  0.2494975976412 1.0
A      1  0.4422165276815  0.6014439319043  0.7514519155368 1.0
A      1  0.5555397573867  0.6008479997051  0.9164174121085 1.0
A      1  0.2778244259954  0.7005573391937  0.0817669564627 1.0
A      1  0.3889066168131  0.7004954469613  0.2491086236238 1.0
A      1  0.2769981474515  0.7004618946367  0.4143532847396 1.0
A      1  0.3843046868814  0.7017435142054  0.5811652543164 1.0
A      1  0.2769247733458  0.7009644865444  0.7486178097720 1.0
A      1  0.3885849418880  0.7013079423040  0.9153930514060 1.0
A      1  0.1110663757498  0.8004816562722  0.0815890771970 1.0
A      1  0.2216845832663  0.8002650065284  0.2478590693012 1.0
A      1  0.1103351940809  0.8002322747626  0.4147032485701 1.0
A      1  0.2206420254371  0.8011182417272  0.5814265592611 1.0
A      1  0.1110336857944  0.8006781986164  0.7484483367856 1.0
A      1  0.2220634532771  0.8006890091769  0.9149804947873 1.0
A      1  0.9444987715790  0.9004088882827  0.0817631639649 1.0
A      1  0.0550596767652  0.9002440537270  0.2481201552024 1.0
A      1  0.9440692981347  0.9001814196954  0.4149999637280 1.0
A      1  0.0552060901730  0.9003615584358  0.5816449911915 1.0
A      1  0.9449374197715  0.9004756884069  0.7485016363134 1.0
A      1  0.0556839004915  0.9005340074918  0.9149540796629 1.0
A      1  0.7780537464157  0.6006921901331  0.0825701722976 1.0
A      1  0.8886292470593  0.6005138527631  0.2488993523834 1.0
A      1  0.7765389744661  0.6010282580626  0.4159144385510 1.0
A      1  0.8881436205374  0.6012473847276  0.5819620445026 1.0
A      1  0.7790263400181  0.6011308726148  0.7495008130145 1.0
A      1  0.8894170670171  0.6006897645906  0.9157032359612 1.0
A      1  0.6112540202292  0.7006351422326  0.0824884616074 1.0
A      1  0.7221340779095  0.7006274354002  0.2486929016782 1.0
A      1  0.6111621937195  0.7026550315300  0.4145630143975 1.0
A      1  0.7196184185108  0.7014787185987  0.5833529813461 1.0
A      1  0.6133865489649  0.7012878925302  0.7518940225154 1.0
A      1  0.7229589678534  0.7006113859939  0.9165632342283 1.0
A      1  0.4444501221149  0.8004233980172  0.0815787853497 1.0
A      1  0.5553709251065  0.8009583605314  0.2481337410147 1.0
A      1  0.4439568485208  0.8006826460869  0.4147419618926 1.0
A      1  0.5567957276247  0.8089020005301  0.5780727515898 1.0
A      1  0.4457956810116  0.7999482913737  0.7463924524016 1.0
A      1  0.5555308269688  0.8007123168942  0.9155897551807 1.0
A      1  0.2778098326092  0.9004277994067  0.0808911122993 1.0
A      1  0.3883177319037  0.8994995469623  0.2474096656312 1.0
A      1  0.2768711368672  0.8995995584995  0.4144699072233 1.0
A      1  0.3879237740996  0.9015358993668  0.5813599834310 1.0
A      1  0.2781624266870  0.9003886900822  0.7479328043390 1.0
A      1  0.3890489535188  0.9002826992268  0.9137225150654 1.0
A      1  0.1109648162832  0.0002318299292  0.0811871988877 1.0
A      1  0.2212439365483  0.9995093221305  0.2474102093872 1.0
A      1  0.1102541096584  0.9996544021569  0.4148408897181 1.0
A      1  0.2220517884511  0.0004199302119  0.5815271210397 1.0
A      1  0.1114405161224  0.0004716699715  0.7481130073530 1.0
A      1  0.2223442484461  0.0003199803720  0.9141454688795 1.0
A      1  0.7779688246643  0.8006286503434  0.0820884268931 1.0
A      1  0.8885664217236  0.8005492714067  0.2485309897055 1.0
A      1  0.7775394000728  0.8007850345779  0.4154612283803 1.0
A      1  0.8883904003516  0.8003569935088  0.5819935340674 1.0
A      1  0.7786333607239  0.8009113796776  0.7490052724029 1.0
A      1  0.8892134471736  0.8006314141463  0.9153839078607 1.0
A      1  0.6113751355014  0.9004480929558  0.0817962547014 1.0
A      1  0.7223916021179  0.9007237377978  0.2479997374742 1.0
A      1  0.6120976367343  0.9026164368696  0.4130127369739 1.0
A      1  0.7236150815575  0.9014374513992  0.5817075080261 1.0
A      1  0.6118708724069  0.9004226523825  0.7484947784321 1.0
A      1  0.7224575373947  0.9004928241734  0.9153526975767 1.0
A      1  0.4446335640713  0.9996831191090  0.0799116746942 1.0
A      1  0.5550243909429  0.0010606450882  0.2476682481561 1.0
A      1  0.4439564220647  0.9974007697967  0.4140705849128 1.0
A      1  0.5561082547256  0.0016170565251  0.5814291782397 1.0
A      1  0.4449796258167  0.0007968114223  0.7473982726734 1.0
A      1  0.5556976363128  0.0000752882582  0.9151869564780 1.0
A      1  0.7780988474362  0.0004025609621  0.0818751592097 1.0
A      1  0.8890421353407  0.0005773722225  0.2482579660793 1.0
A      1  0.7783068596783  0.0006844155370  0.4146088687152 1.0
A      1  0.8899034458398  0.0001818559435  0.5816399290656 1.0
A      1  0.7788709648910  0.0001533197847  0.7488912601012 1.0
A      1  0.8893071780712  0.0003847467165  0.9152652266725 1.0
END
