TITL AB-20764-5019-490 0.0000000000 4458.8459578500 -1497.8281018925 0 0  183 (P1) n - 1
REM
REM Run started: at Fri Oct 6 15:37:37 BST 2023 in /home/michal/install/eddp/airss/examples/1.11
REM pp3 from code version ## 0.9.3 July 2022 commit b0220bf5cbf550a3b7
REM
REM
REM
REM Total runtime: s
REM
REM
REM ./AB.cell (a186c3e4acc5915692489c59fabd1559)
REM ## AIRSS Version 0.9.3 July 2022 commit b0220bf5cbf550a3b7
REM compiler GCC version 11.4.0
REM options -cpp -imultiarch x86_64-linux-gnu -mtune=generic -march=x86-64 -g -Og -fpre-include=/usr/include/finclude/math-vector-fortran.h
REM cmdline: airss.pl -pp3 max 100 -seed AB 
REM seed 2090114982 -1948288642 -4683826 -2072183952 1298676170 -77640378 1530980208 -1723191896
REM
REM AB.pp (46f9ffe235eb1beff4ce53cde2d82919)
REM 
CELL 1.54180   16.99142   16.35000   16.05000   90.00000   90.00000   90.00000
LATT -1
SFAC A  B  
A      1  0.9439671531686  0.0996313778418  0.0844670011915 1.0
A      1  0.0544234376160  0.0982469475300  0.2507931230992 1.0
A      1  0.4025038662554  0.5264608333983  0.5448341019193 1.0
A      1  0.5746711184047  0.5183158778954  0.4156528533718 1.0
A      1  0.5416913942259  0.4017087243915  0.5923981886210 1.0
A      1  0.4379252558730  0.3903303917602  0.4124170545939 1.0
A      1  0.5651993120181  0.6045916532195  0.5924512573501 1.0
B      2  0.4767272545528  0.6490847925228  0.4636504564724 1.0
B      2  0.4063465678264  0.5841365475703  0.3819658894533 1.0
B      2  0.6572696371114  0.4151612249625  0.4931315028429 1.0
B      2  0.3497012345906  0.4244252382647  0.6492153351176 1.0
A      1  0.9436977961092  0.0991843724713  0.4177742067243 1.0
A      1  0.0546836989539  0.0991482676035  0.5843489196396 1.0
A      1  0.9445951732601  0.1005892598077  0.7511915449844 1.0
A      1  0.0552371085080  0.0997931435147  0.9174790765555 1.0
A      1  0.2770129724221  0.0988355257889  0.0832663074869 1.0
A      1  0.3870856730311  0.0969755610807  0.2493981145098 1.0
A      1  0.2765027628291  0.0970446505949  0.4172467736039 1.0
A      1  0.3884511148531  0.0973509614948  0.5839222419803 1.0
A      1  0.2778638783323  0.1005686766483  0.7503600945533 1.0
A      1  0.3885131259195  0.0993000091483  0.9170225318379 1.0
A      1  0.1101839414195  0.1991579458091  0.0834002896727 1.0
A      1  0.2203885519525  0.1967451098158  0.2495476520997 1.0
A      1  0.1095567743618  0.1977053612410  0.4170638194932 1.0
A      1  0.2202813130629  0.1979874799846  0.5837136031046 1.0
A      1  0.1112375490908  0.2004540285827  0.7505842650829 1.0
A      1  0.2216814712217  0.1995866588563  0.9162493747930 1.0
A      1  0.9435112788099  0.2993953875782  0.0840222694764 1.0
A      1  0.0544709373754  0.2980327230684  0.2498434889309 1.0
A      1  0.9447206611302  0.2980424495021  0.4171718776393 1.0
A      1  0.0538175392654  0.2987043021730  0.5839637961617 1.0
A      1  0.9443505507280  0.3002511614134  0.7512588108916 1.0
A      1  0.0550958053721  0.2997521814439  0.9172189783814 1.0
A      1  0.6110292307518  0.0992157591615  0.0837238324512 1.0
A      1  0.7214772018859  0.0995351304081  0.2511606420170 1.0
A      1  0.6107748195442  0.0981202240650  0.4173193480622 1.0
A      1  0.7219808350880  0.1006049384203  0.5845799492849 1.0
A      1  0.6111161959385  0.1005563570499  0.7510575469142 1.0
A      1  0.7220294370219  0.1002128922900  0.9178670713578 1.0
A      1  0.4438855097444  0.1979587345864  0.0831473776216 1.0
A      1  0.5537828155619  0.1976469574862  0.2485572334659 1.0
A      1  0.4424380317390  0.1940207072910  0.4145441050669 1.0
A      1  0.5555950428408  0.2004223147832  0.5834780025405 1.0
A      1  0.4443688292702  0.2000434564026  0.7501244070135 1.0
A      1  0.5552299344983  0.2002093402913  0.9174712960240 1.0
A      1  0.2762101563876  0.2984094955488  0.0832658609782 1.0
A      1  0.3866144016048  0.2958079329490  0.2476830738846 1.0
A      1  0.2736892272902  0.2955633404348  0.4146950996430 1.0
A      1  0.3868642283193  0.2908171025614  0.5783649816807 1.0
A      1  0.2787792780412  0.3024108722277  0.7486171561260 1.0
A      1  0.3876043756712  0.2981817667485  0.9193780872973 1.0
A      1  0.1094172525240  0.3993751802339  0.0836773702900 1.0
A      1  0.2201951595070  0.3968540714783  0.2482445728659 1.0
A      1  0.1077314532642  0.3980291456005  0.4155631227115 1.0
A      1  0.2171036083067  0.3977957130628  0.5790640163293 1.0
A      1  0.1106651834310  0.4000962102907  0.7502934670018 1.0
A      1  0.2213546758923  0.3990678056712  0.9180633236446 1.0
A      1  0.9438083951204  0.5001128925149  0.0849197788742 1.0
A      1  0.0550002195617  0.4994062444136  0.2510508767774 1.0
A      1  0.9446961078355  0.5006952351909  0.4182583598243 1.0
A      1  0.0553176488270  0.5000510673818  0.5845191079027 1.0
A      1  0.9440390957418  0.5005581959756  0.7517195755936 1.0
A      1  0.0555207698733  0.5000916233364  0.9176734236362 1.0
A      1  0.7774257230115  0.1996026465875  0.0846771426029 1.0
A      1  0.8878811299540  0.1992294134485  0.2511761495072 1.0
A      1  0.7765654284575  0.1998647428804  0.4180997881672 1.0
A      1  0.8879997556429  0.1999545706242  0.5843893454653 1.0
A      1  0.7780592982967  0.2002208194976  0.7514792139536 1.0
A      1  0.8887597089405  0.1998784156555  0.9178171539127 1.0
A      1  0.6107526447538  0.2989284481783  0.0853124139397 1.0
A      1  0.7213022118270  0.2992904579133  0.2508674514257 1.0
A      1  0.6061274380244  0.2936262892149  0.4127697814197 1.0
A      1  0.7214940737045  0.3008577765345  0.5854926596578 1.0
A      1  0.6124956956310  0.2996887335565  0.7519960501960 1.0
A      1  0.7227237326506  0.2998936904596  0.9190448950635 1.0
A      1  0.4436701088612  0.3982538505797  0.0837674108898 1.0
A      1  0.5538651431977  0.3993424114112  0.2508078643278 1.0
A      1  0.4489300330812  0.3978862303724  0.7632334366990 1.0
A      1  0.5577376224728  0.3997970612550  0.9221757357135 1.0
A      1  0.2760725405316  0.4988611806187  0.0838905967223 1.0
A      1  0.3875627699851  0.4961474057557  0.2472614828760 1.0
A      1  0.2723073375095  0.4950276563867  0.4115893313722 1.0
A      1  0.2731890716670  0.5041555405168  0.7578975931354 1.0
A      1  0.3879883216524  0.5002271378800  0.9196407534216 1.0
A      1  0.1099881925393  0.5996901303808  0.0851319066580 1.0
A      1  0.2215809506146  0.5988713168939  0.2504137228054 1.0
A      1  0.1115440720357  0.5995924665573  0.4185832315741 1.0
A      1  0.2253446684806  0.5970587932656  0.5858717211068 1.0
A      1  0.1096484063348  0.6013103032046  0.7516242429815 1.0
A      1  0.2207781534464  0.6015173695096  0.9204642124575 1.0
A      1  0.9438022948067  0.6998426874203  0.0858894018819 1.0
A      1  0.0546802763003  0.6987837249649  0.2520073135174 1.0
A      1  0.9439355813524  0.6994735040878  0.4186137397796 1.0
A      1  0.0570314217494  0.6997428209213  0.5850030218821 1.0
A      1  0.9448164242637  0.7014453663549  0.7522992469837 1.0
A      1  0.0550961011386  0.7006280520519  0.9188350064932 1.0
A      1  0.7767269367292  0.4002707015539  0.0860369806373 1.0
A      1  0.8892690830135  0.3996387341452  0.2495581075606 1.0
A      1  0.7841408712609  0.3981356435065  0.4137263967021 1.0
A      1  0.8889970876288  0.4000093663804  0.5845079245287 1.0
A      1  0.7787513354520  0.3999071923112  0.7538053693400 1.0
A      1  0.8890993947201  0.4002245345454  0.9189004719941 1.0
A      1  0.6103524020281  0.5003550918159  0.0858750757680 1.0
A      1  0.7176842954243  0.5000616810855  0.2554014758424 1.0
A      1  0.7285324425693  0.5059588238541  0.5942940700356 1.0
A      1  0.6128029032017  0.4999059203071  0.7551140572853 1.0
A      1  0.7229637986149  0.5007536875698  0.9202494128255 1.0
A      1  0.4428903612860  0.5995394503153  0.0834706884654 1.0
A      1  0.5522511548781  0.6042990528145  0.2465889898534 1.0
A      1  0.4427049435942  0.5966499390279  0.7469230848047 1.0
A      1  0.5546853892508  0.6000725320025  0.9179960100206 1.0
A      1  0.2775441700605  0.6996833225377  0.0853611178989 1.0
A      1  0.3883789897073  0.6979914466258  0.2533023413435 1.0
A      1  0.2828386124766  0.6945329668532  0.4202975507062 1.0
A      1  0.3890163354648  0.7093908857357  0.5889166364309 1.0
A      1  0.2770954599096  0.7013648441591  0.7524711795035 1.0
A      1  0.3886247115427  0.6995235042139  0.9171169827796 1.0
A      1  0.1108285826735  0.7994030532943  0.0853859094189 1.0
A      1  0.2221120862511  0.7977230558048  0.2525353577742 1.0
A      1  0.1119688291448  0.7982504042597  0.4181852617819 1.0
A      1  0.2216549742051  0.7994364791502  0.5847187963589 1.0
A      1  0.1111040013674  0.8009328431031  0.7518649669565 1.0
A      1  0.2218980601071  0.8004484541289  0.9185919909841 1.0
A      1  0.9442979704903  0.8998187803043  0.0850116611641 1.0
A      1  0.0552581606863  0.8984975068611  0.2514618371566 1.0
A      1  0.9451564758768  0.8996549812752  0.4181133636544 1.0
A      1  0.0558006685866  0.8997371453102  0.5848103472444 1.0
A      1  0.9448826261134  0.9011506995359  0.7519272472606 1.0
A      1  0.0553732075733  0.9001544425355  0.9183562751403 1.0
A      1  0.7771251816147  0.5997432627671  0.0868107217178 1.0
A      1  0.8869923696811  0.5990268166449  0.2530409494286 1.0
A      1  0.7736150206184  0.5973645789395  0.4211368997113 1.0
A      1  0.8913137589899  0.6018617141180  0.5856857608912 1.0
A      1  0.7791899368866  0.6030486901667  0.7557851682285 1.0
A      1  0.8894626657182  0.6004790438587  0.9197067774871 1.0
A      1  0.6109944224541  0.7006361037500  0.0839195277458 1.0
A      1  0.7218787801312  0.7001221473978  0.2518705367430 1.0
A      1  0.6148470603431  0.7065047749918  0.4178950921307 1.0
A      1  0.7259213487530  0.7040586041069  0.5867922720371 1.0
A      1  0.6122203283150  0.7021499095032  0.7551230544463 1.0
A      1  0.7225144660333  0.7008115464836  0.9202470250116 1.0
A      1  0.4438607629743  0.7988664790862  0.0850164967191 1.0
A      1  0.5552616991493  0.8014178369535  0.2508143913222 1.0
A      1  0.4450561953527  0.8007971426199  0.4173849016716 1.0
A      1  0.5567735041074  0.8019648541561  0.5854322099583 1.0
A      1  0.4456515586529  0.8007904266274  0.7534976539351 1.0
A      1  0.5553271586195  0.8008787043933  0.9193086547262 1.0
A      1  0.2771718600380  0.8992415529921  0.0848057544409 1.0
A      1  0.3879702000533  0.8983552413821  0.2507325770900 1.0
A      1  0.2777029843830  0.8974154588195  0.4182581814536 1.0
A      1  0.3890502137047  0.9021327779592  0.5849753589183 1.0
A      1  0.2781408832069  0.9003297279577  0.7511860284990 1.0
A      1  0.3884116956570  0.8997573356583  0.9183897655550 1.0
A      1  0.1106404364998  0.9994017204404  0.0844017159657 1.0
A      1  0.2211731175117  0.9975932287296  0.2509971535634 1.0
A      1  0.1107199307688  0.9984375390665  0.4177730101162 1.0
A      1  0.2215137110805  0.9989643892815  0.5844435587410 1.0
A      1  0.1113089760298  0.0005050553571  0.7511852984431 1.0
A      1  0.2219044415838  0.9998144074708  0.9174032247827 1.0
A      1  0.7777058766012  0.8002642560141  0.0855991766450 1.0
A      1  0.8887318225369  0.7994811643752  0.2517296601763 1.0
A      1  0.7797836858895  0.8008431352979  0.4184916925801 1.0
A      1  0.8906538346563  0.8012846855706  0.5855376649363 1.0
A      1  0.7786517986212  0.8021234613654  0.7528256600371 1.0
A      1  0.8888761014485  0.8004419686085  0.9189582829878 1.0
A      1  0.6110785497807  0.9000762958886  0.0847247927573 1.0
A      1  0.7220681257854  0.8999154932635  0.2517376236475 1.0
A      1  0.6118616305947  0.9016038811408  0.4181300139187 1.0
A      1  0.7229351485465  0.9015375628985  0.5849711480622 1.0
A      1  0.6117484010905  0.9011968502188  0.7518266428624 1.0
A      1  0.7221220760363  0.9005517660775  0.9186453746084 1.0
A      1  0.4441408984068  0.9986993187663  0.0839485938240 1.0
A      1  0.5547751134424  0.9994661236764  0.2506176718967 1.0
A      1  0.4440338846212  0.9979429670478  0.4169735567411 1.0
A      1  0.5557645492248  0.0007526629022  0.5847161105094 1.0
A      1  0.4447229176868  0.0002122480668  0.7515767651653 1.0
A      1  0.5553339915936  0.0002755692997  0.9177924693485 1.0
A      1  0.7776622931200  0.9999216609186  0.0848283870177 1.0
A      1  0.8884275099673  0.9992152128576  0.2513098323617 1.0
A      1  0.7782057957169  0.0002345816640  0.4180156154461 1.0
A      1  0.8889114194550  0.0002748752048  0.5848244457550 1.0
A      1  0.7780510732201  0.0010663282668  0.7515755680171 1.0
A      1  0.8886902475060  0.0001682422346  0.9181720028903 1.0
END
