TITL AB-20764-5019-203 0.0000000000 4458.8459578500 -1493.0234229604 0 0  183 (P1) n - 1
REM
REM Run started: at Fri Oct 6 15:26:46 BST 2023 in /home/michal/install/eddp/airss/examples/1.11
REM pp3 from code version ## 0.9.3 July 2022 commit b0220bf5cbf550a3b7
REM
REM
REM
REM Total runtime: s
REM
REM
REM ./AB.cell (a186c3e4acc5915692489c59fabd1559)
REM ## AIRSS Version 0.9.3 July 2022 commit b0220bf5cbf550a3b7
REM compiler GCC version 11.4.0
REM options -cpp -imultiarch x86_64-linux-gnu -mtune=generic -march=x86-64 -g -Og -fpre-include=/usr/include/finclude/math-vector-fortran.h
REM cmdline: airss.pl -pp3 max 100 -seed AB 
REM seed 1618094115 1853582243 2034082291 -2108676048 1341656889 -1199130281 -1816011716 -1966698624
REM
REM AB.pp (46f9ffe235eb1beff4ce53cde2d82919)
REM 
CELL 1.54180   16.99142   16.35000   16.05000   90.00000   90.00000   90.00000
LATT -1
SFAC A  B  
A      1  0.9455215172107  0.1008746301916  0.0824662241691 1.0
A      1  0.0565403594509  0.1015993803398  0.2489889335627 1.0
A      1  0.5644237279324  0.3812355084555  0.5850287716311 1.0
A      1  0.4139251954053  0.4404237855971  0.4921888603748 1.0
A      1  0.5958488976031  0.4900095899017  0.4129916747128 1.0
A      1  0.4387832080350  0.6051816181601  0.4040668117122 1.0
A      1  0.5200755472835  0.5607980580033  0.5995735365534 1.0
B      2  0.4741452165045  0.3568217570950  0.3723635750218 1.0
B      2  0.5199302689981  0.6847840975598  0.5079534508907 1.0
B      2  0.3640586385943  0.5316694115055  0.6199612953603 1.0
B      2  0.6353914858658  0.6073885354944  0.5108260141283 1.0
A      1  0.9468143808000  0.1013497622176  0.4153791164181 1.0
A      1  0.0575255087904  0.1011119484911  0.5823442504618 1.0
A      1  0.9464072922828  0.1002994365502  0.7494920763518 1.0
A      1  0.0564868552592  0.1008758600964  0.9160427678887 1.0
A      1  0.2783794611353  0.1010949036746  0.0830067895473 1.0
A      1  0.3896581876253  0.1009437733868  0.2496200422873 1.0
A      1  0.2793475081152  0.1024788217011  0.4162660178173 1.0
A      1  0.3896130971470  0.0937834373680  0.5832268701837 1.0
A      1  0.2793172440112  0.1008150877607  0.7491177453818 1.0
A      1  0.3891873857939  0.0998229241860  0.9167209921745 1.0
A      1  0.1117884854825  0.2012042920571  0.0826793731914 1.0
A      1  0.2228222706193  0.2014973893608  0.2497138719444 1.0
A      1  0.1131885038063  0.2022150584407  0.4155870093634 1.0
A      1  0.2222019104867  0.2003744949251  0.5822846983073 1.0
A      1  0.1122474316082  0.2004977097706  0.7494071622459 1.0
A      1  0.2228748111957  0.2002387065963  0.9162091018019 1.0
A      1  0.9449670044643  0.3008247808565  0.0825774358231 1.0
A      1  0.0555392726807  0.3011830414787  0.2491537998322 1.0
A      1  0.9448830875499  0.3012346017055  0.4160020348607 1.0
A      1  0.0583895756495  0.3018002013587  0.5825325877804 1.0
A      1  0.9460043352323  0.3002688645581  0.7490608637154 1.0
A      1  0.0562726394931  0.3005535550256  0.9157500208953 1.0
A      1  0.6122635561147  0.1002064050215  0.0828800535663 1.0
A      1  0.7231658506218  0.1006849208321  0.2489455538336 1.0
A      1  0.6132110638428  0.0994076949758  0.4153221800659 1.0
A      1  0.7255622358666  0.0995174747320  0.5825422616722 1.0
A      1  0.6139432153317  0.0978342059644  0.7507029748174 1.0
A      1  0.7235287259323  0.1001548464280  0.9165806849923 1.0
A      1  0.4451601971286  0.2003485030313  0.0820882686799 1.0
A      1  0.5559582096481  0.2004991688032  0.2488602552079 1.0
A      1  0.4461806345496  0.2006416281834  0.4177240813724 1.0
A      1  0.5581004744124  0.1920151889728  0.5840938565880 1.0
A      1  0.4475644624661  0.1975655228782  0.7532221237682 1.0
A      1  0.5568261173018  0.1987497910666  0.9175713919497 1.0
A      1  0.2781423225979  0.3007258690969  0.0818177795285 1.0
A      1  0.3887233543319  0.2990371956056  0.2472806901026 1.0
A      1  0.2834384603066  0.3050615699597  0.4161482780430 1.0
A      1  0.3895757447129  0.2849225271331  0.5908306650766 1.0
A      1  0.2779157789182  0.3004446974866  0.7509327414595 1.0
A      1  0.3896116952127  0.3001313295229  0.9145902438086 1.0
A      1  0.1108811718654  0.4010345756583  0.0823678416263 1.0
A      1  0.2214142778590  0.4002723214838  0.2479073037455 1.0
A      1  0.1106380261334  0.4006212136256  0.4162459499820 1.0
A      1  0.2310547776482  0.4032978957782  0.5821023028779 1.0
A      1  0.1117415440828  0.4005204960179  0.7483314970154 1.0
A      1  0.2217415882569  0.4001387618567  0.9168711023284 1.0
A      1  0.9446450730714  0.5006110382626  0.0823886851287 1.0
A      1  0.0557905428653  0.5012571357003  0.2493650991737 1.0
A      1  0.9429987345301  0.5009202085142  0.4157542025311 1.0
A      1  0.0569410793503  0.5007001052681  0.5818519731615 1.0
A      1  0.9448719501689  0.5003069295128  0.7485444365289 1.0
A      1  0.0558379261213  0.5006032919934  0.9152289184177 1.0
A      1  0.7790161482603  0.2002826633481  0.0826264413378 1.0
A      1  0.8899585919856  0.2008566035303  0.2488972488536 1.0
A      1  0.7806541300260  0.1997439896447  0.4153721565157 1.0
A      1  0.8928391867801  0.2001044463640  0.5826772439613 1.0
A      1  0.7803771642903  0.1987691680332  0.7501445535812 1.0
A      1  0.8902204941071  0.2005325358092  0.9161135751566 1.0
A      1  0.6124782569525  0.2994296942881  0.0810640795446 1.0
A      1  0.7234517252190  0.3001725992084  0.2487759808423 1.0
A      1  0.6144934321958  0.2951928645557  0.4150173968025 1.0
A      1  0.7285505232829  0.2958833654619  0.5832444551093 1.0
A      1  0.6134664717685  0.2959952543500  0.7526832128542 1.0
A      1  0.7237820743712  0.3000049174985  0.9165835760556 1.0
A      1  0.4445307750946  0.3998687117997  0.0816014789248 1.0
A      1  0.5577987149321  0.3993289599786  0.2424441412235 1.0
A      1  0.4434424278952  0.4045357950262  0.7416195243467 1.0
A      1  0.5547984352244  0.3987031568536  0.9154477017031 1.0
A      1  0.2774809739657  0.5009880963918  0.0831921409283 1.0
A      1  0.3892812545002  0.4963359878384  0.2504931392664 1.0
A      1  0.2666949857098  0.5075608297989  0.4091182433554 1.0
A      1  0.2749191471450  0.5006123881339  0.7521296266678 1.0
A      1  0.3878561359355  0.4984027530531  0.9180772643478 1.0
A      1  0.1101976795149  0.6009344474346  0.0817152576866 1.0
A      1  0.2213080394208  0.6034957969416  0.2459417751839 1.0
A      1  0.1068001613562  0.6038524254811  0.4150286452963 1.0
A      1  0.2217645578277  0.6007809085284  0.5817423011218 1.0
A      1  0.1101740253851  0.6010345573864  0.7488887271437 1.0
A      1  0.2219110812471  0.6009709157551  0.9164983951355 1.0
A      1  0.9442268107923  0.7006749543092  0.0818940144246 1.0
A      1  0.0550704182963  0.7020801035255  0.2482867468765 1.0
A      1  0.9427824569574  0.7012666783554  0.4153719579249 1.0
A      1  0.0554171707744  0.7011250943967  0.5823241291601 1.0
A      1  0.9441114479311  0.7004503702013  0.7484798785719 1.0
A      1  0.0556602232198  0.7010143371593  0.9153169952724 1.0
A      1  0.7783463542400  0.4003970304244  0.0830270097314 1.0
A      1  0.8888115565468  0.4009309406982  0.2495650436751 1.0
A      1  0.7757651583274  0.4011244010176  0.4164838436989 1.0
A      1  0.8903992534116  0.4006322254483  0.5823362054308 1.0
A      1  0.7795713506808  0.3984515568718  0.7496282775704 1.0
A      1  0.8899678747401  0.4004123841187  0.9159416120868 1.0
A      1  0.6119033741352  0.5004167294225  0.0802014210476 1.0
A      1  0.7215616318732  0.5011838095834  0.2497520105819 1.0
A      1  0.7207869986576  0.4969738774350  0.5847391575602 1.0
A      1  0.6133622961811  0.4955606445100  0.7537172874753 1.0
A      1  0.7235295175825  0.4994568584751  0.9159956267411 1.0
A      1  0.4437966296121  0.6001757356881  0.0824395947988 1.0
A      1  0.5559152472661  0.6007994647353  0.2450672680104 1.0
A      1  0.4365712338865  0.6030505300489  0.7609312824821 1.0
A      1  0.5553938766370  0.5996137542832  0.9161576846384 1.0
A      1  0.2763598755354  0.7018730362453  0.0816154049096 1.0
A      1  0.3875857563252  0.7033255944885  0.2446678091313 1.0
A      1  0.2761521549098  0.7043977082670  0.4146556643393 1.0
A      1  0.3852622778946  0.6987223857500  0.5846210570163 1.0
A      1  0.2748270263636  0.7018986098074  0.7500622162590 1.0
A      1  0.3870984916069  0.7024653353573  0.9192136092637 1.0
A      1  0.1107250022754  0.8012377830975  0.0820297412017 1.0
A      1  0.2215297361072  0.8028683309028  0.2484894872732 1.0
A      1  0.1105599066610  0.8023360159096  0.4153755974264 1.0
A      1  0.2214994041783  0.8011993638708  0.5823272979365 1.0
A      1  0.1104196172047  0.8013204414347  0.7489354122288 1.0
A      1  0.2215256385389  0.8018710686880  0.9156732000205 1.0
A      1  0.9451862374579  0.9010727498789  0.0818894835310 1.0
A      1  0.0561605959135  0.9022426747343  0.2486188943571 1.0
A      1  0.9462435798648  0.9019732643439  0.4152767793250 1.0
A      1  0.0568011150050  0.9016546203517  0.5823380477539 1.0
A      1  0.9453631355557  0.9007805874638  0.7491754872069 1.0
A      1  0.0559344920741  0.9013039940405  0.9156444031533 1.0
A      1  0.7785566410623  0.5997446604256  0.0801576529321 1.0
A      1  0.8893084823648  0.6005214768606  0.2491482398917 1.0
A      1  0.7738158995872  0.6001696557293  0.4164351912751 1.0
A      1  0.8884730426735  0.6003610866089  0.5817673350749 1.0
A      1  0.7779068073609  0.5994442764629  0.7484624685988 1.0
A      1  0.8894879911978  0.6005614006209  0.9148610667137 1.0
A      1  0.6114340968960  0.7008519965225  0.0798698707689 1.0
A      1  0.7269234414477  0.7011548486025  0.2413269890564 1.0
A      1  0.6186378280062  0.7113354004631  0.3954058082106 1.0
A      1  0.7268314781012  0.7066213356851  0.5842839119418 1.0
A      1  0.6083499486715  0.6946000787908  0.7440413298332 1.0
A      1  0.7219168616117  0.6998991940384  0.9134844283151 1.0
A      1  0.4443227691522  0.8019223834115  0.0802285668062 1.0
A      1  0.5539049959062  0.8042828579835  0.2420206631162 1.0
A      1  0.4465427953364  0.8020106594782  0.4149783640618 1.0
A      1  0.5607843069042  0.8084537282916  0.5873533038922 1.0
A      1  0.4442133351250  0.8000345949947  0.7495336659048 1.0
A      1  0.5558659323990  0.7993495248160  0.9139046668128 1.0
A      1  0.2779334295553  0.9014440583028  0.0821547060875 1.0
A      1  0.3884780216249  0.9020478653389  0.2487963410651 1.0
A      1  0.2786899932901  0.9022739853405  0.4157765672817 1.0
A      1  0.3897470910463  0.8976742990726  0.5821797320174 1.0
A      1  0.2782472082931  0.9009921600137  0.7488154236079 1.0
A      1  0.3889525976430  0.9010858250178  0.9154196551749 1.0
A      1  0.1118446530086  0.0012143347503  0.0823423725867 1.0
A      1  0.2227960260023  0.0020955412828  0.2492554110723 1.0
A      1  0.1126910482237  0.0019983437430  0.4155990126536 1.0
A      1  0.2228820777564  0.0003617189264  0.5824531040404 1.0
A      1  0.1122797459342  0.0009210798884  0.7491904996182 1.0
A      1  0.2226816097987  0.0010676007670  0.9157119924833 1.0
A      1  0.7788258719476  0.8012952963203  0.0795895311988 1.0
A      1  0.8902573872778  0.8020757197727  0.2478926124871 1.0
A      1  0.7812380327545  0.8029686931266  0.4147962566986 1.0
A      1  0.8916045872482  0.8022194600286  0.5824893590911 1.0
A      1  0.7783107086953  0.8005158228163  0.7499568383642 1.0
A      1  0.8897317094814  0.8006156299958  0.9150691641738 1.0
A      1  0.6123415084253  0.9012086570732  0.0801769401452 1.0
A      1  0.7226625270683  0.9005019440436  0.2481479306411 1.0
A      1  0.6129752931583  0.9033552140297  0.4153222202110 1.0
A      1  0.7260537428483  0.9031661178726  0.5823959581859 1.0
A      1  0.6134649945686  0.8998284548774  0.7516070233382 1.0
A      1  0.7234364556328  0.9008075601542  0.9157084649291 1.0
A      1  0.4451018720067  0.0008683946675  0.0826889951432 1.0
A      1  0.5562392314178  0.0014524354320  0.2484627885148 1.0
A      1  0.4458680308140  0.0008123084769  0.4156479935733 1.0
A      1  0.5576610311666  0.9999121973116  0.5831784958040 1.0
A      1  0.4461659810717  0.9988114896956  0.7495762220308 1.0
A      1  0.5559688932319  0.9999969940744  0.9162931940250 1.0
A      1  0.7789620567607  0.0007432656148  0.0825510613032 1.0
A      1  0.8898054373646  0.0013720139727  0.2487099741393 1.0
A      1  0.7802231747262  0.0012934736621  0.4149576379027 1.0
A      1  0.8916692717816  0.0014599792522  0.5822330617448 1.0
A      1  0.7801505723110  0.0000757213482  0.7496142341889 1.0
A      1  0.8899583492844  0.0008258690842  0.9159872047910 1.0
END
