TITL AB-20764-5019-124 0.0000000000 4458.8459578500 -1499.3109895493 0 0  183 (P1) n - 1
REM
REM Run started: at Fri Oct 6 15:23:47 BST 2023 in /home/michal/install/eddp/airss/examples/1.11
REM pp3 from code version ## 0.9.3 July 2022 commit b0220bf5cbf550a3b7
REM
REM
REM
REM Total runtime: s
REM
REM
REM ./AB.cell (a186c3e4acc5915692489c59fabd1559)
REM ## AIRSS Version 0.9.3 July 2022 commit b0220bf5cbf550a3b7
REM compiler GCC version 11.4.0
REM options -cpp -imultiarch x86_64-linux-gnu -mtune=generic -march=x86-64 -g -Og -fpre-include=/usr/include/finclude/math-vector-fortran.h
REM cmdline: airss.pl -pp3 max 100 -seed AB 
REM seed 755426712 -521779468 -282933859 129281331 -1995424897 -486193132 2137037769 1118632341
REM
REM AB.pp (46f9ffe235eb1beff4ce53cde2d82919)
REM 
CELL 1.54180   16.99142   16.35000   16.05000   90.00000   90.00000   90.00000
LATT -1
SFAC A  B  
A      1  0.9445171077703  0.1002575772981  0.0804307461489 1.0
A      1  0.0557565557891  0.1004607983091  0.2470763852134 1.0
A      1  0.5399250570112  0.4810040188200  0.5729687942856 1.0
A      1  0.4503716284133  0.6004596195262  0.4226303635534 1.0
A      1  0.4439639367214  0.4025918884507  0.4168281150288 1.0
A      1  0.3671031478276  0.5041771667205  0.5840674203462 1.0
A      1  0.6173009900090  0.5031710779462  0.4019306345564 1.0
B      2  0.5298647889483  0.3359087028678  0.6295500570592 1.0
B      2  0.6148044716573  0.6100441790346  0.5305932569718 1.0
B      2  0.6418919289292  0.3944456446999  0.6475053794247 1.0
B      2  0.5264669025930  0.6387147589174  0.6161769367659 1.0
A      1  0.9451828034104  0.0998839402548  0.4132529963022 1.0
A      1  0.0563671462488  0.0996504503440  0.5805240725266 1.0
A      1  0.9448747086031  0.0994711823481  0.7474158151938 1.0
A      1  0.0554024707595  0.1001817759351  0.9140055543536 1.0
A      1  0.2774690691333  0.1005377100142  0.0808561942541 1.0
A      1  0.3887488625437  0.1010915401021  0.2479517723329 1.0
A      1  0.2777829058168  0.1010171943591  0.4141341467993 1.0
A      1  0.3886693577991  0.1003613990989  0.5808346620776 1.0
A      1  0.2775666855562  0.1006803773381  0.7474738316697 1.0
A      1  0.3880559876706  0.1001332691782  0.9140215106575 1.0
A      1  0.1109593205445  0.2004316867200  0.0806460235140 1.0
A      1  0.2221467854884  0.2007206657534  0.2475664727278 1.0
A      1  0.1109368793435  0.2005538778685  0.4140160031153 1.0
A      1  0.2217123444834  0.1999952911792  0.5808831149494 1.0
A      1  0.1105832621861  0.2003246224060  0.7473777311270 1.0
A      1  0.2217590600190  0.2003485604661  0.9141307158777 1.0
A      1  0.9442096943614  0.3001813113846  0.0802422701430 1.0
A      1  0.0554867729725  0.3001982921362  0.2471217087936 1.0
A      1  0.9438935336662  0.2997749763961  0.4136029742997 1.0
A      1  0.0535156980985  0.2989750555249  0.5806634116124 1.0
A      1  0.9427075652163  0.2994456521925  0.7472563196582 1.0
A      1  0.0546851902693  0.2998909707266  0.9141593714555 1.0
A      1  0.6108765142086  0.1000619276760  0.0819771090723 1.0
A      1  0.7221902381606  0.1000306033609  0.2466565746101 1.0
A      1  0.6117972380800  0.1006239101067  0.4130496503401 1.0
A      1  0.7235124893994  0.0961866216505  0.5802880784371 1.0
A      1  0.6110344463865  0.0959517170093  0.7480466290124 1.0
A      1  0.7214766605264  0.0999901072247  0.9143477157829 1.0
A      1  0.4435542595947  0.2007669632988  0.0826076591269 1.0
A      1  0.5555603309739  0.2014033052469  0.2492734142690 1.0
A      1  0.4442525819147  0.2014492135710  0.4151835467946 1.0
A      1  0.5579503913789  0.1913708147879  0.5801362390540 1.0
A      1  0.4441474875697  0.2009407910318  0.7464766256638 1.0
A      1  0.5535631003285  0.1972896686630  0.9186643936800 1.0
A      1  0.2774235914546  0.3004443706767  0.0812726236488 1.0
A      1  0.3884724908482  0.3014849602064  0.2489770678972 1.0
A      1  0.2766806384550  0.3014377745919  0.4143422282922 1.0
A      1  0.3862107586362  0.3024365393107  0.5802188714969 1.0
A      1  0.2768276238215  0.3011254537925  0.7476441565177 1.0
A      1  0.3884758256667  0.3001697576545  0.9141871844920 1.0
A      1  0.1104074795042  0.4003893224581  0.0809489622344 1.0
A      1  0.2217388381644  0.4007320971674  0.2473754764244 1.0
A      1  0.1091607744360  0.4005377318381  0.4134690654687 1.0
A      1  0.2151237162783  0.3982785236301  0.5811600868596 1.0
A      1  0.1080510555181  0.3997685172058  0.7481966601929 1.0
A      1  0.2209301582231  0.3997477179337  0.9155591210682 1.0
A      1  0.9438661717420  0.5003299491023  0.0801337102733 1.0
A      1  0.0553000928538  0.5005808448088  0.2469740588402 1.0
A      1  0.9433184593580  0.5007341709847  0.4134365525032 1.0
A      1  0.0527891011283  0.5002664394335  0.5806672240111 1.0
A      1  0.9420464154064  0.4996232088855  0.7470381342837 1.0
A      1  0.0546112131215  0.5002403150876  0.9142668794666 1.0
A      1  0.7776809960369  0.1999053498903  0.0814990191689 1.0
A      1  0.8890856518538  0.2002953698096  0.2466603233075 1.0
A      1  0.7782682667759  0.1986933895395  0.4114999129792 1.0
A      1  0.8908365400157  0.1973866598618  0.5800763136026 1.0
A      1  0.7782700293745  0.1979525182593  0.7474123003838 1.0
A      1  0.8886318568577  0.1995923324232  0.9141817574709 1.0
A      1  0.6108210160723  0.3001981997910  0.0819145201044 1.0
A      1  0.7215212138378  0.3007960406616  0.2483727024812 1.0
A      1  0.6094250976376  0.3042026809220  0.4200386498581 1.0
A      1  0.7279646524045  0.2913929767430  0.5764958899896 1.0
A      1  0.6114103809095  0.2905588706561  0.7595520728486 1.0
A      1  0.7231739234048  0.2995561377754  0.9169021372467 1.0
A      1  0.4435237223705  0.4007613043741  0.0818646438118 1.0
A      1  0.5549946011134  0.4003550173588  0.2468836763932 1.0
A      1  0.4434543072517  0.4026472635002  0.7475908067341 1.0
A      1  0.5546289281812  0.3997753346619  0.9161147736786 1.0
A      1  0.2771630553006  0.5005543832825  0.0818301431859 1.0
A      1  0.3891406828271  0.5017728664996  0.2500067789238 1.0
A      1  0.2751428790949  0.5012860492526  0.4129821949974 1.0
A      1  0.2720625632048  0.5003407712016  0.7515052251284 1.0
A      1  0.3875189172966  0.5001550842679  0.9151693185210 1.0
A      1  0.1103353780573  0.6004873075066  0.0808860890063 1.0
A      1  0.2216071905540  0.6010624737469  0.2472432654863 1.0
A      1  0.1092009164321  0.6008562431672  0.4132724363816 1.0
A      1  0.2135159744824  0.6043741704596  0.5811803310043 1.0
A      1  0.1076656385150  0.6005321760424  0.7482812386847 1.0
A      1  0.2207642758258  0.6008603882364  0.9155880856617 1.0
A      1  0.9442619741766  0.7007059425590  0.0801053046893 1.0
A      1  0.0555965242332  0.7011239573572  0.2468191492615 1.0
A      1  0.9445579089877  0.7015313931892  0.4129900584385 1.0
A      1  0.0531848404130  0.7026974634215  0.5805227511800 1.0
A      1  0.9432648953061  0.7006830409461  0.7473344007392 1.0
A      1  0.0548068733989  0.7008231287245  0.9142112622717 1.0
A      1  0.7780126564855  0.3998183610760  0.0805594049169 1.0
A      1  0.8895124647634  0.4000497590756  0.2467503593890 1.0
A      1  0.7786745733850  0.4001756481831  0.4127116860747 1.0
A      1  0.8885952657938  0.3991857905078  0.5804434314089 1.0
A      1  0.7744663067628  0.3987628974688  0.7460976857875 1.0
A      1  0.8883227007076  0.4000479367921  0.9132798263125 1.0
A      1  0.6107815505055  0.5005862431377  0.0804848486647 1.0
A      1  0.7249916613560  0.5011192626013  0.2428918897624 1.0
A      1  0.7280004423280  0.5042221340191  0.5766573064964 1.0
A      1  0.6095503735270  0.5053686389811  0.7549841029250 1.0
A      1  0.7223571181368  0.4998502263035  0.9149173179357 1.0
A      1  0.4431528489644  0.6006762369539  0.0812724798493 1.0
A      1  0.5550037126167  0.6021588872578  0.2446527226793 1.0
A      1  0.4408441637167  0.5994330314913  0.7481008172027 1.0
A      1  0.5535328017040  0.6015825764582  0.9160746380651 1.0
A      1  0.2773066308892  0.7007580989180  0.0813805455625 1.0
A      1  0.3890634153739  0.7003625094616  0.2491024866678 1.0
A      1  0.2780375507257  0.6997194515231  0.4144683971994 1.0
A      1  0.3851882472194  0.7013183074071  0.5813162302922 1.0
A      1  0.2754940300416  0.7000425957356  0.7477516228453 1.0
A      1  0.3873653681032  0.7005227372540  0.9140227536211 1.0
A      1  0.1109762221249  0.8005959658857  0.0806451181043 1.0
A      1  0.2224127627210  0.8007227379923  0.2475890398310 1.0
A      1  0.1115295770527  0.8005299804402  0.4137625136072 1.0
A      1  0.2210915122721  0.8019438379865  0.5806481380192 1.0
A      1  0.1103699010672  0.8004517180372  0.7473909374936 1.0
A      1  0.2214759339024  0.8006606595715  0.9141899126941 1.0
A      1  0.9445611746226  0.9005606368114  0.0802490771813 1.0
A      1  0.0558801578566  0.9007579483303  0.2470060064736 1.0
A      1  0.9454952241560  0.9007929404689  0.4132242997032 1.0
A      1  0.0559580046811  0.9012646084550  0.5804502445012 1.0
A      1  0.9447721251443  0.9002667597411  0.7473742295214 1.0
A      1  0.0552642831958  0.9005694545324  0.9139834381359 1.0
A      1  0.7780030138151  0.6010879760011  0.0787341711819 1.0
A      1  0.8898354966154  0.6009835508715  0.2461775979746 1.0
A      1  0.7788143109706  0.6035036237567  0.4117599741755 1.0
A      1  0.8903134224282  0.6018749356668  0.5799565877423 1.0
A      1  0.7774604093025  0.5999746141644  0.7468812732323 1.0
A      1  0.8886047272008  0.6004959273387  0.9133665843907 1.0
A      1  0.6110047003488  0.7011516577248  0.0795531604531 1.0
A      1  0.7232791082813  0.7010708673842  0.2441255982281 1.0
A      1  0.6127972765879  0.7065909323618  0.4055867884776 1.0
A      1  0.7264826738432  0.7041303468825  0.5810938648054 1.0
A      1  0.6106115209610  0.7000711437120  0.7455118801373 1.0
A      1  0.7213319186502  0.7001017752541  0.9127427609814 1.0
A      1  0.4436531251988  0.8004068906698  0.0801216604456 1.0
A      1  0.5546818345157  0.8025430278943  0.2443431019394 1.0
A      1  0.4442548827515  0.8010896619306  0.4134325720830 1.0
A      1  0.5561516760426  0.7960954513327  0.5775325039861 1.0
A      1  0.4438678761728  0.7993858333830  0.7464308513178 1.0
A      1  0.5546824963776  0.8001180032022  0.9131290598570 1.0
A      1  0.2774378844387  0.9006239834395  0.0806036250140 1.0
A      1  0.3884850501573  0.9009940583129  0.2470781493189 1.0
A      1  0.2779590504291  0.9005943964578  0.4139383245723 1.0
A      1  0.3888415909723  0.8999585426495  0.5804427220512 1.0
A      1  0.2775027582022  0.9001448502647  0.7473294347089 1.0
A      1  0.3882503058743  0.9001457857839  0.9136789209664 1.0
A      1  0.1110844167377  0.0005136628742  0.0805599436173 1.0
A      1  0.2223328392319  0.0007812182312  0.2473153151172 1.0
A      1  0.1117903757496  0.0005425609672  0.4137301742274 1.0
A      1  0.2227310485568  0.0006504898553  0.5806871596901 1.0
A      1  0.1114075034808  0.0002851177969  0.7473913290199 1.0
A      1  0.2219251487449  0.0004102230822  0.9140041792977 1.0
A      1  0.7777644758118  0.8009465729212  0.0792462725861 1.0
A      1  0.8891539775396  0.8010405085108  0.2462706397990 1.0
A      1  0.7790250445051  0.8021189671660  0.4125624562169 1.0
A      1  0.8897303760756  0.8021323098290  0.5802087219566 1.0
A      1  0.7779826863553  0.8005133222770  0.7477164522735 1.0
A      1  0.8884785873017  0.8005243084383  0.9137804099964 1.0
A      1  0.6108712086177  0.9007817002143  0.0796339466762 1.0
A      1  0.7219921633031  0.9006134323990  0.2461819816140 1.0
A      1  0.6113615204332  0.9022097230534  0.4126737023295 1.0
A      1  0.7222891214198  0.8999175162120  0.5799782074844 1.0
A      1  0.6106449179248  0.8982145421553  0.7462931875828 1.0
A      1  0.7215336155278  0.9002216609217  0.9134040528369 1.0
A      1  0.4439544308369  0.0006337976587  0.0805749563472 1.0
A      1  0.5550182387767  0.0012186689720  0.2469528559789 1.0
A      1  0.4443766677155  0.0011653920920  0.4139802400746 1.0
A      1  0.5551787028056  0.9961611602429  0.5801924382759 1.0
A      1  0.4438537827442  0.9999345262162  0.7471916493704 1.0
A      1  0.5547708924201  0.9991014980719  0.9140937759789 1.0
A      1  0.7777917985401  0.0003124153225  0.0801202569137 1.0
A      1  0.8890108386666  0.0004949025034  0.2466522248289 1.0
A      1  0.7786585277776  0.0000855012262  0.4129959329455 1.0
A      1  0.8897009808930  0.9996118856459  0.5802837199290 1.0
A      1  0.7782002921445  0.9989883120090  0.7474232056852 1.0
A      1  0.8885300121203  0.0001620290369  0.9138925381546 1.0
END
