TITL AB-20764-5019-30 0.0000000000 4458.8459578500 -1495.8723423500 0 0  183 (P1) n - 1
REM
REM Run started: at Fri Oct 6 15:20:18 BST 2023 in /home/michal/install/eddp/airss/examples/1.11
REM pp3 from code version ## 0.9.3 July 2022 commit b0220bf5cbf550a3b7
REM
REM
REM
REM Total runtime: s
REM
REM
REM ./AB.cell (a186c3e4acc5915692489c59fabd1559)
REM ## AIRSS Version 0.9.3 July 2022 commit b0220bf5cbf550a3b7
REM compiler GCC version 11.4.0
REM options -cpp -imultiarch x86_64-linux-gnu -mtune=generic -march=x86-64 -g -Og -fpre-include=/usr/include/finclude/math-vector-fortran.h
REM cmdline: airss.pl -pp3 max 100 -seed AB 
REM seed 1701849253 663554102 1125251407 1227735872 -2124076467 60026438 -1508912082 -551988568
REM
REM AB.pp (46f9ffe235eb1beff4ce53cde2d82919)
REM 
CELL 1.54180   16.99142   16.35000   16.05000   90.00000   90.00000   90.00000
LATT -1
SFAC A  B  
A      1  0.9426888349264  0.1000065548729  0.0842435585657 1.0
A      1  0.0536235244620  0.0990299525236  0.2509024162598 1.0
A      1  0.5790996160474  0.5193340168284  0.4257758339825 1.0
A      1  0.4367253323584  0.3965099369591  0.4124870366905 1.0
A      1  0.3884875545153  0.5060968354955  0.5764732485763 1.0
A      1  0.5554262722450  0.6035761771546  0.5972036644591 1.0
A      1  0.5449663938540  0.3988931593434  0.5776849510825 1.0
B      2  0.6586983749684  0.4155852662578  0.3464195287922 1.0
B      2  0.4745070700200  0.6478763709956  0.4640185601915 1.0
B      2  0.4167138210131  0.5666214609553  0.3885499136533 1.0
B      2  0.6648867328540  0.4024734082133  0.6682894353305 1.0
A      1  0.9434109245616  0.0989401379922  0.4175092517736 1.0
A      1  0.0542441190409  0.0991664659481  0.5844621854764 1.0
A      1  0.9428001011505  0.0995969580790  0.7512115758974 1.0
A      1  0.0536375581545  0.0997064740591  0.9176653667045 1.0
A      1  0.2756742298702  0.0991937810911  0.0844409464198 1.0
A      1  0.3864523267765  0.0982455605598  0.2510565892425 1.0
A      1  0.2753272467190  0.0982737727150  0.4177239060664 1.0
A      1  0.3863177746138  0.0992618862190  0.5847906673811 1.0
A      1  0.2753566799261  0.0991734806950  0.7511826686122 1.0
A      1  0.3862960328655  0.0991838424539  0.9182428534725 1.0
A      1  0.1090247814471  0.1993640845169  0.0841465231057 1.0
A      1  0.2193522386140  0.1979791314938  0.2504366145150 1.0
A      1  0.1093737738862  0.1983496721853  0.4176011470314 1.0
A      1  0.2200341179513  0.1990782228530  0.5842873263949 1.0
A      1  0.1098489977091  0.1992091020376  0.7510325468674 1.0
A      1  0.2204423684071  0.1993232103409  0.9173295656103 1.0
A      1  0.9429115609771  0.2995907354830  0.0850091509390 1.0
A      1  0.0538022882884  0.2991865669033  0.2508387461365 1.0
A      1  0.9455741082966  0.2981571122662  0.4182466377343 1.0
A      1  0.0549998623495  0.2997725848927  0.5845603412078 1.0
A      1  0.9452885256582  0.2986262570897  0.7518481674719 1.0
A      1  0.0548231073712  0.2994792963447  0.9178476376464 1.0
A      1  0.6093229538158  0.0995944258152  0.0853059307263 1.0
A      1  0.7200655966078  0.1000563559192  0.2509239458981 1.0
A      1  0.6091922542032  0.0982984245591  0.4184658511073 1.0
A      1  0.7205782941727  0.0977682624551  0.5844208670191 1.0
A      1  0.6092551645338  0.0979644918402  0.7521612123879 1.0
A      1  0.7203149911618  0.1002093731636  0.9179130572634 1.0
A      1  0.4418693707135  0.1991142432372  0.0844976524242 1.0
A      1  0.5528683960300  0.1996085106294  0.2514456345766 1.0
A      1  0.4403101133524  0.1976425470434  0.4179147224467 1.0
A      1  0.5527323625740  0.1986404370680  0.5873636938846 1.0
A      1  0.4404620975799  0.1986842436051  0.7514566245050 1.0
A      1  0.5524124024551  0.1978888655528  0.9205009236606 1.0
A      1  0.2747163840744  0.2990964366031  0.0829521661068 1.0
A      1  0.3841010378183  0.2966851358887  0.2489575856120 1.0
A      1  0.2734935604392  0.2978373386839  0.4167045554382 1.0
A      1  0.3845846813624  0.2991840481117  0.5833898769708 1.0
A      1  0.2755906900842  0.2997498689954  0.7503893167300 1.0
A      1  0.3868144318547  0.2993823494187  0.9160647398481 1.0
A      1  0.1086321362556  0.3996633880543  0.0837616534832 1.0
A      1  0.2191893319247  0.3982960004948  0.2496878148165 1.0
A      1  0.1091633462369  0.3994455321037  0.4173611475574 1.0
A      1  0.2213276414938  0.4004951337979  0.5833878250991 1.0
A      1  0.1101811268988  0.3999885584052  0.7506591930154 1.0
A      1  0.2207762540162  0.3997705607907  0.9165141790942 1.0
A      1  0.9429452179224  0.5007789821639  0.0845548639178 1.0
A      1  0.0544015824876  0.4996952873802  0.2507124304120 1.0
A      1  0.9447980047726  0.5011715195470  0.4176057611891 1.0
A      1  0.0545797727989  0.4999078092381  0.5841129781892 1.0
A      1  0.9451742677826  0.5010875516918  0.7513480542931 1.0
A      1  0.0549318205490  0.5001752462581  0.9177307981634 1.0
A      1  0.7760785833491  0.1999391432643  0.0847578000019 1.0
A      1  0.8873708144158  0.1999742683385  0.2508908922402 1.0
A      1  0.7770399879148  0.1980794694757  0.4153735920437 1.0
A      1  0.8890353105546  0.1987333140764  0.5842315382043 1.0
A      1  0.7759404604973  0.2003409877720  0.7506238467852 1.0
A      1  0.8871271567826  0.2001413021314  0.9177728946130 1.0
A      1  0.6090956286807  0.2994101712369  0.0844115126344 1.0
A      1  0.7200957235025  0.3005678057025  0.2508446625232 1.0
A      1  0.6049136931583  0.2926426893838  0.4214642337162 1.0
A      1  0.7239625755388  0.2926712463328  0.5790124774944 1.0
A      1  0.6052265463532  0.2932175904918  0.7578591617554 1.0
A      1  0.7204668239744  0.2997294588766  0.9190377670188 1.0
A      1  0.4402137127674  0.3986916077069  0.0809294558991 1.0
A      1  0.5462432382939  0.3990723762996  0.2448277892177 1.0
A      1  0.4426529521938  0.4008768904290  0.7484796741652 1.0
A      1  0.5531072249084  0.3994944034213  0.9189838310033 1.0
A      1  0.2742250172960  0.4994677768204  0.0823395028495 1.0
A      1  0.3837661849782  0.4972567205647  0.2457221619066 1.0
A      1  0.2740924514479  0.4984786496821  0.4155383276118 1.0
A      1  0.2765827506832  0.5000149338470  0.7491291313976 1.0
A      1  0.3869495628913  0.5000338953325  0.9167979342957 1.0
A      1  0.1092529660099  0.6002350718831  0.0840363412958 1.0
A      1  0.2202671495574  0.5993228546830  0.2505409728270 1.0
A      1  0.1103940846870  0.6003787841817  0.4174519806651 1.0
A      1  0.2202754320023  0.6002898532173  0.5844277171222 1.0
A      1  0.1099494256394  0.6002765096840  0.7508749221506 1.0
A      1  0.2207237469659  0.6001012628106  0.9172279463135 1.0
A      1  0.9435878011755  0.7010372580093  0.0833670217422 1.0
A      1  0.0547709017987  0.7001376575132  0.2507413160290 1.0
A      1  0.9434655696656  0.7003775704468  0.4171256633218 1.0
A      1  0.0539613909718  0.6998144821052  0.5842641725311 1.0
A      1  0.9425071550026  0.7000055479646  0.7504101172337 1.0
A      1  0.0539899923217  0.7000112896268  0.9172427470890 1.0
A      1  0.7764910346661  0.3998301344182  0.0838989818300 1.0
A      1  0.8876844950105  0.4003779444413  0.2510714780098 1.0
A      1  0.7863562777311  0.3975632695943  0.4216072079379 1.0
A      1  0.8881363858801  0.4000057795230  0.5877798774165 1.0
A      1  0.7845634582283  0.3995596231944  0.7587104014081 1.0
A      1  0.8900930703702  0.3999836721354  0.9206563600198 1.0
A      1  0.6087456872779  0.5000577366732  0.0836549075438 1.0
A      1  0.7245636296116  0.5070645230437  0.2422795793873 1.0
A      1  0.7210072713744  0.5072860865135  0.5719703349657 1.0
A      1  0.6048155873549  0.5073941061325  0.7617241371063 1.0
A      1  0.7210571097818  0.5003630444497  0.9192370916562 1.0
A      1  0.4416479534596  0.5995026692123  0.0849619003721 1.0
A      1  0.5530320183627  0.6006405026410  0.2507621478595 1.0
A      1  0.4396626842537  0.6020070460468  0.7537425577743 1.0
A      1  0.5521995515724  0.6030313660516  0.9220343744191 1.0
A      1  0.2761452527238  0.6995541629888  0.0855702549089 1.0
A      1  0.3887435375107  0.6966861275320  0.2550850195581 1.0
A      1  0.2811548674937  0.6963125917919  0.4193234606754 1.0
A      1  0.3862462198314  0.7027771158854  0.5879683012088 1.0
A      1  0.2749048632951  0.7008556697651  0.7520652863983 1.0
A      1  0.3861404882537  0.7010526049329  0.9192840511924 1.0
A      1  0.1098630400953  0.8000451483816  0.0846466956795 1.0
A      1  0.2217939177591  0.7983669760719  0.2521815790609 1.0
A      1  0.1110145156066  0.7988695132020  0.4177780628239 1.0
A      1  0.2201918446646  0.7997840593713  0.5845389937268 1.0
A      1  0.1089824552708  0.8000784588858  0.7511091293146 1.0
A      1  0.2199926888664  0.8000643035201  0.9184281685212 1.0
A      1  0.9431695489186  0.9005230723078  0.0841868078700 1.0
A      1  0.0545321013672  0.8993575497658  0.2510339718986 1.0
A      1  0.9441290460082  0.8998341300086  0.4173996486083 1.0
A      1  0.0541122168568  0.8995292760758  0.5843097734868 1.0
A      1  0.9429264765451  0.9000202249372  0.7510641669355 1.0
A      1  0.0536595079540  0.8998634763838  0.9178443292391 1.0
A      1  0.7777564543481  0.6027368769616  0.0810991835588 1.0
A      1  0.8896513057318  0.6016685893816  0.2496034485620 1.0
A      1  0.7753421459037  0.6006120167783  0.4115483985308 1.0
A      1  0.8877398967159  0.6005151732426  0.5829706403670 1.0
A      1  0.7749775915627  0.5985646468881  0.7486464298315 1.0
A      1  0.8876896579170  0.5999848319134  0.9161417850957 1.0
A      1  0.6099301006826  0.7006159404288  0.0853401366964 1.0
A      1  0.7212830558432  0.7032114763069  0.2490888465954 1.0
A      1  0.6132036898633  0.7069878192543  0.4172577354325 1.0
A      1  0.7213555339449  0.7026665163248  0.5840502780121 1.0
A      1  0.6099505071158  0.7042541992767  0.7551293720035 1.0
A      1  0.7208241987255  0.7004860573758  0.9173093420548 1.0
A      1  0.4424745707179  0.7991255781197  0.0861273975673 1.0
A      1  0.5538738014058  0.8010182403965  0.2511816170350 1.0
A      1  0.4435373405583  0.8011488964090  0.4183421997320 1.0
A      1  0.5535603288503  0.8009786392390  0.5853038390224 1.0
A      1  0.4426792715876  0.8010995474836  0.7529451498137 1.0
A      1  0.5532900705135  0.8014534889264  0.9198730193809 1.0
A      1  0.2759880335909  0.8994597191069  0.0850218036476 1.0
A      1  0.3870807148295  0.8987572173024  0.2515704032595 1.0
A      1  0.2764162678077  0.8984825446469  0.4182852841869 1.0
A      1  0.3867918713623  0.9004909379504  0.5852981645212 1.0
A      1  0.2756997211293  0.8998174929997  0.7516103111478 1.0
A      1  0.3865005883123  0.9000785708601  0.9188830922742 1.0
A      1  0.1093856765500  0.9997702407207  0.0844347923210 1.0
A      1  0.2204215237792  0.9984702012150  0.2512389096770 1.0
A      1  0.1098140227080  0.9988591005298  0.4177330238351 1.0
A      1  0.2202532501333  0.9992542593061  0.5846182739572 1.0
A      1  0.1091765467962  0.9995692128470  0.7512055342196 1.0
A      1  0.2199751490152  0.9995703408009  0.9180229283310 1.0
A      1  0.7766785429894  0.8015414855541  0.0835810760107 1.0
A      1  0.8880547080024  0.8007451283873  0.2502805310722 1.0
A      1  0.7784434414112  0.8014940418570  0.4171744018181 1.0
A      1  0.8879460940305  0.8003382209755  0.5841827751682 1.0
A      1  0.7768392661070  0.8003188414390  0.7510620125394 1.0
A      1  0.8873822191245  0.8001491424886  0.9173505810488 1.0
A      1  0.6096294942274  0.9003071248121  0.0851228464867 1.0
A      1  0.7207049181641  0.9010665600519  0.2510856638857 1.0
A      1  0.6101671062237  0.9018609626104  0.4181573020704 1.0
A      1  0.7206772277536  0.9001414265477  0.5845630463419 1.0
A      1  0.6096501133356  0.9007546995114  0.7517094188845 1.0
A      1  0.7204278298168  0.9003475731617  0.9176713499971 1.0
A      1  0.4426029262759  0.9992717831155  0.0849471561699 1.0
A      1  0.5533649919768  0.0000342777363  0.2514706619973 1.0
A      1  0.4423414787886  0.9993670215061  0.4181517015383 1.0
A      1  0.5531863004791  0.9997050878790  0.5851442736283 1.0
A      1  0.4422836452971  0.9997737530197  0.7519342249540 1.0
A      1  0.5534266373549  0.9996876275816  0.9186962881880 1.0
A      1  0.7762134865441  0.0004926847354  0.0842972225912 1.0
A      1  0.8873323867022  0.0000459027147  0.2508413862419 1.0
A      1  0.7770572105083  0.9998220497193  0.4175792058248 1.0
A      1  0.8876615146346  0.9994370308724  0.5843260618259 1.0
A      1  0.7765504727077  0.0000588838005  0.7513115404289 1.0
A      1  0.8870777417374  0.0000444034120  0.9177760669806 1.0
END
