TITL AB-20764-5019-118 0.0000000000 4458.8459578500 -1500.7691135143 0 0  183 (P1) n - 1
REM
REM Run started: at Fri Oct 6 15:23:33 BST 2023 in /home/michal/install/eddp/airss/examples/1.11
REM pp3 from code version ## 0.9.3 July 2022 commit b0220bf5cbf550a3b7
REM
REM
REM
REM Total runtime: s
REM
REM
REM ./AB.cell (a186c3e4acc5915692489c59fabd1559)
REM ## AIRSS Version 0.9.3 July 2022 commit b0220bf5cbf550a3b7
REM compiler GCC version 11.4.0
REM options -cpp -imultiarch x86_64-linux-gnu -mtune=generic -march=x86-64 -g -Og -fpre-include=/usr/include/finclude/math-vector-fortran.h
REM cmdline: airss.pl -pp3 max 100 -seed AB 
REM seed 314158751 478483520 1021334012 820665620 -364261514 -432259602 -999271569 -1752757236
REM
REM AB.pp (46f9ffe235eb1beff4ce53cde2d82919)
REM 
CELL 1.54180   16.99142   16.35000   16.05000   90.00000   90.00000   90.00000
LATT -1
SFAC A  B  
A      1  0.9460488838075  0.0998868302875  0.0839265785356 1.0
A      1  0.0572056015039  0.1002357720429  0.2510362786735 1.0
A      1  0.5576029803452  0.6065247065170  0.5870966652074 1.0
A      1  0.4410167275656  0.5982306974972  0.4247544357808 1.0
A      1  0.5629346906215  0.3947770708956  0.5828738720390 1.0
A      1  0.6083400511533  0.5088334628583  0.4258635457850 1.0
A      1  0.4494268913854  0.3986370587161  0.4146343867526 1.0
B      2  0.3687240617403  0.4596891959493  0.5405797513817 1.0
B      2  0.6667226342266  0.4012419466404  0.3345138871842 1.0
B      2  0.3526845068978  0.5567785405842  0.6244637637240 1.0
B      2  0.4559636382608  0.4949759698954  0.6258074768947 1.0
A      1  0.9462865953821  0.1001077037365  0.4176195838674 1.0
A      1  0.0573630184214  0.1011668734971  0.5843019271817 1.0
A      1  0.9459398721704  0.1001260533774  0.7508082392565 1.0
A      1  0.0566854847125  0.1001943163517  0.9175556664305 1.0
A      1  0.2786339993288  0.1004556971558  0.0845940861444 1.0
A      1  0.3897630001824  0.0999889300812  0.2510767046721 1.0
A      1  0.2785316783382  0.1007836576693  0.4178143208252 1.0
A      1  0.3894023790657  0.1011301542255  0.5848760215238 1.0
A      1  0.2785890476444  0.1002991916273  0.7513297431089 1.0
A      1  0.3895652034634  0.1000221440944  0.9181962771696 1.0
A      1  0.1116936320374  0.2003609158836  0.0844902307628 1.0
A      1  0.2228001067395  0.2003174813986  0.2514349224989 1.0
A      1  0.1131596725189  0.2007005737574  0.4178468515479 1.0
A      1  0.2244244503164  0.2021534028243  0.5844784724628 1.0
A      1  0.1122145834844  0.2003006795223  0.7511683709198 1.0
A      1  0.2228105642632  0.1999600604673  0.9178820741641 1.0
A      1  0.9449764250767  0.3004392726827  0.0844823417650 1.0
A      1  0.0565161453455  0.3006286494282  0.2510008651919 1.0
A      1  0.9478300674565  0.2995787267685  0.4180710183555 1.0
A      1  0.0583792214014  0.3009603482650  0.5848111939802 1.0
A      1  0.9457914832325  0.3000433967020  0.7515332219449 1.0
A      1  0.0565204121622  0.3002943054938  0.9179491914392 1.0
A      1  0.6122461950218  0.1002771696412  0.0844887905884 1.0
A      1  0.7234904182961  0.0982656519397  0.2505924087919 1.0
A      1  0.6123564746601  0.0968646676927  0.4176733181114 1.0
A      1  0.7237289487887  0.1001779051757  0.5840270278020 1.0
A      1  0.6126142745609  0.0997092165546  0.7518185948457 1.0
A      1  0.7230933992678  0.0998539205708  0.9171793812662 1.0
A      1  0.4453349928661  0.2003588804138  0.0846801584857 1.0
A      1  0.5566550612352  0.2004731006293  0.2514503591297 1.0
A      1  0.4441710261617  0.1989343899462  0.4182399024468 1.0
A      1  0.5562251328616  0.1970840839718  0.5871122965170 1.0
A      1  0.4450795304168  0.1997924472548  0.7518108676563 1.0
A      1  0.5562096150874  0.1999396134876  0.9176860707276 1.0
A      1  0.2775185424172  0.3000537297605  0.0843809415946 1.0
A      1  0.3876031523724  0.2991645690594  0.2505083661059 1.0
A      1  0.2797121016913  0.3022738683207  0.4186717803631 1.0
A      1  0.3922508266455  0.3027925024295  0.5851799333147 1.0
A      1  0.2782056907792  0.3000694308008  0.7512876422514 1.0
A      1  0.3889686586375  0.2993567006805  0.9179815099072 1.0
A      1  0.1112847702771  0.4005296529984  0.0843087489107 1.0
A      1  0.2222689740558  0.4004017456242  0.2507761000269 1.0
A      1  0.1123455965909  0.4009127141488  0.4181609337165 1.0
A      1  0.2250065277871  0.4040038345332  0.5855234608528 1.0
A      1  0.1115290404716  0.4005348106251  0.7513121610574 1.0
A      1  0.2227826183369  0.4000397694276  0.9184282741396 1.0
A      1  0.9447962674055  0.5006152838005  0.0843040752711 1.0
A      1  0.0562022122117  0.5004305095981  0.2505453103400 1.0
A      1  0.9466633089701  0.5014347626523  0.4176351667776 1.0
A      1  0.0559236924311  0.5009440427380  0.5844384126569 1.0
A      1  0.9451483228943  0.5009655621908  0.7515175397273 1.0
A      1  0.0564286100675  0.5005159451824  0.9177989590906 1.0
A      1  0.7799333600317  0.1983041783040  0.0813968392762 1.0
A      1  0.8918173830111  0.1990904643885  0.2505417803809 1.0
A      1  0.7799480848057  0.1999393717355  0.4165422154985 1.0
A      1  0.8913210948312  0.2003059749202  0.5841891545611 1.0
A      1  0.7794942010120  0.1996812138713  0.7512444538599 1.0
A      1  0.8904871091608  0.2001666510574  0.9171430715945 1.0
A      1  0.6120077487991  0.2998588890523  0.0824776964339 1.0
A      1  0.7271182982754  0.2933190885203  0.2439973110722 1.0
A      1  0.6106287576902  0.2900440108910  0.4231501026550 1.0
A      1  0.7261364609821  0.2984602102435  0.5857181540374 1.0
A      1  0.6124403507363  0.2994880294746  0.7516716076024 1.0
A      1  0.7234140412190  0.3000189445859  0.9170361524206 1.0
A      1  0.4424492947815  0.4003206096131  0.0812058087924 1.0
A      1  0.5485031205253  0.3999491661791  0.2421500261390 1.0
A      1  0.4445059118790  0.3984936699055  0.7538264989607 1.0
A      1  0.5563856702286  0.4002732223049  0.9173525284510 1.0
A      1  0.2775719025832  0.5007688914935  0.0843773666992 1.0
A      1  0.3874863829066  0.5010960659600  0.2515748524058 1.0
A      1  0.2758940149740  0.5020988330398  0.4162231668215 1.0
A      1  0.2772720812250  0.4995426428472  0.7534621146159 1.0
A      1  0.3892609797583  0.5009863726022  0.9179129598034 1.0
A      1  0.1114270442109  0.6007373129575  0.0840713405843 1.0
A      1  0.2220613934279  0.6013334638158  0.2503639791618 1.0
A      1  0.1101116227424  0.6017837970953  0.4159759833397 1.0
A      1  0.2160631371165  0.6044975529148  0.5815064407197 1.0
A      1  0.1112364953456  0.6007918039590  0.7510268731412 1.0
A      1  0.2226705270943  0.6008703794274  0.9179291887522 1.0
A      1  0.9457363836862  0.7011531488958  0.0836031582278 1.0
A      1  0.0564885855494  0.7015832252685  0.2503184129892 1.0
A      1  0.9444065139071  0.7012550620029  0.4172475138050 1.0
A      1  0.0539052714739  0.7023469004595  0.5839638820283 1.0
A      1  0.9448092298090  0.7008084170114  0.7507355155873 1.0
A      1  0.0563191607433  0.7007446566319  0.9172883960628 1.0
A      1  0.7786552106816  0.4004565538156  0.0825875196850 1.0
A      1  0.8889846736620  0.4004669739816  0.2517720642753 1.0
A      1  0.7866756966721  0.3998836615155  0.4248079103669 1.0
A      1  0.8925450152078  0.4002904093246  0.5872299024945 1.0
A      1  0.7786282243813  0.4003379994257  0.7513220059939 1.0
A      1  0.8899907993069  0.4004289778463  0.9174587815195 1.0
A      1  0.6117586776715  0.5007732850539  0.0827265672807 1.0
A      1  0.7271604259589  0.5079647558010  0.2433546754835 1.0
A      1  0.7242590465652  0.5008424960863  0.5857873321194 1.0
A      1  0.6104176140300  0.5001211750830  0.7498210882654 1.0
A      1  0.7228401690088  0.5005822848656  0.9164790444394 1.0
A      1  0.4452070384177  0.6001946362494  0.0852874862176 1.0
A      1  0.5559579652835  0.5993989620948  0.2534977318618 1.0
A      1  0.4451480019030  0.6017830015183  0.7529577690811 1.0
A      1  0.5563190460695  0.6006589150039  0.9178127171491 1.0
A      1  0.2787122738317  0.7005763303548  0.0846699539705 1.0
A      1  0.3898448016407  0.6998153389253  0.2525631149786 1.0
A      1  0.2775313145598  0.7018158432852  0.4174682368839 1.0
A      1  0.3894909316960  0.7057935098904  0.5844463595122 1.0
A      1  0.2783974792060  0.6996008153614  0.7498407650730 1.0
A      1  0.3893795883271  0.7007718160348  0.9183011544242 1.0
A      1  0.1123787791499  0.8006734605222  0.0838991214048 1.0
A      1  0.2231670449942  0.8009115780345  0.2508633950724 1.0
A      1  0.1115346497355  0.8010998723285  0.4175019835361 1.0
A      1  0.2220839363395  0.8024307906112  0.5842795338148 1.0
A      1  0.1119087847593  0.8004558862172  0.7507331492914 1.0
A      1  0.2231446596064  0.8003430122648  0.9172689376629 1.0
A      1  0.9457970158679  0.9004952395854  0.0839111021055 1.0
A      1  0.0567504361179  0.9008202553500  0.2507116406203 1.0
A      1  0.9456027864373  0.9006406763247  0.4174551021330 1.0
A      1  0.0561823181670  0.9015484210301  0.5842565474817 1.0
A      1  0.9455656867064  0.9004711100805  0.7508701768770 1.0
A      1  0.0565465244893  0.9004485912339  0.9174366860404 1.0
A      1  0.7797302078988  0.6025761773012  0.0809283532728 1.0
A      1  0.8914782444169  0.6021520663376  0.2503425767525 1.0
A      1  0.7781440517912  0.6000207077939  0.4165042511929 1.0
A      1  0.8894353523071  0.6006754193912  0.5839411166005 1.0
A      1  0.7781914582405  0.6008215715746  0.7509536864094 1.0
A      1  0.8900705593238  0.6006712209223  0.9168501214148 1.0
A      1  0.6119428289683  0.7000632058084  0.0849969044299 1.0
A      1  0.7231508206771  0.7027232068563  0.2506678621283 1.0
A      1  0.6112305420185  0.7031786152123  0.4177919290340 1.0
A      1  0.7237271704537  0.7013525639029  0.5839625241060 1.0
A      1  0.6123508092618  0.7016238220717  0.7522189136881 1.0
A      1  0.7229192606013  0.7011159980642  0.9172284499216 1.0
A      1  0.4451723559116  0.8001740497689  0.0849003022909 1.0
A      1  0.5560125007420  0.8004421711581  0.2507955668230 1.0
A      1  0.4450210796421  0.8006967157076  0.4177088876803 1.0
A      1  0.5566644444092  0.8028956320552  0.5850144484157 1.0
A      1  0.4453815285248  0.8012018871729  0.7517684999138 1.0
A      1  0.5562048217525  0.8005574607713  0.9184690177533 1.0
A      1  0.2787853120541  0.9004683421104  0.0842716712328 1.0
A      1  0.3895970952600  0.9001797911446  0.2511077185750 1.0
A      1  0.2785238119398  0.9010227715833  0.4177774329517 1.0
A      1  0.3893612682425  0.9024300956877  0.5846523738525 1.0
A      1  0.2787059626799  0.9003291904682  0.7511058091128 1.0
A      1  0.3896946763147  0.9004479336555  0.9180664590774 1.0
A      1  0.1123830231295  0.0004022021767  0.0842009091708 1.0
A      1  0.2233676917312  0.0004827098453  0.2510132093343 1.0
A      1  0.1122999308793  0.0006433340568  0.4176328452570 1.0
A      1  0.2230105115777  0.0016272695731  0.5844843908645 1.0
A      1  0.1122328290648  0.0003362536561  0.7510159990587 1.0
A      1  0.2231535148629  0.0002004749412  0.9177440567100 1.0
A      1  0.7788139302822  0.8010335285426  0.0839045412135 1.0
A      1  0.8899549363293  0.8012759043751  0.2505020902273 1.0
A      1  0.7787604855394  0.8007609136687  0.4174713203722 1.0
A      1  0.8892466074264  0.8014709350878  0.5841548407467 1.0
A      1  0.7787659828761  0.8008642806790  0.7508100318526 1.0
A      1  0.8897083104629  0.8006713193967  0.9173579376983 1.0
A      1  0.6120497404355  0.9002746297818  0.0844732184495 1.0
A      1  0.7230249447743  0.9005803777623  0.2509188252395 1.0
A      1  0.6121052817966  0.9003499044808  0.4174436179775 1.0
A      1  0.7232282358081  0.9010533500669  0.5842243116796 1.0
A      1  0.6122543638770  0.9007950924591  0.7516849136055 1.0
A      1  0.7230614868412  0.9005334990096  0.9175286086404 1.0
A      1  0.4453301999362  0.0002840410525  0.0845406399415 1.0
A      1  0.5560486420620  0.0001205745087  0.2507291929112 1.0
A      1  0.4450882394535  0.0000880051055  0.4178604300589 1.0
A      1  0.5563802453637  0.0001879973330  0.5849052151605 1.0
A      1  0.4454311223787  0.0006353662323  0.7515068990581 1.0
A      1  0.5562913487299  0.0002710940552  0.9181882055836 1.0
A      1  0.7790447268111  0.9998035075965  0.0839165343547 1.0
A      1  0.8903185708144  0.0002163032017  0.2506676679940 1.0
A      1  0.7795869181538  0.0000801995091  0.4175691823507 1.0
A      1  0.8902188207417  0.0009003714533  0.5842318682714 1.0
A      1  0.7791958119935  0.0002524967304  0.7507691832372 1.0
A      1  0.8899152579424  0.0004150218707  0.9173917731096 1.0
END
