TITL AB-20764-5019-112 0.0000000000 4458.8459578500 -1501.0777480228 0 0  183 (P1) n - 1
REM
REM Run started: at Fri Oct 6 15:23:19 BST 2023 in /home/michal/install/eddp/airss/examples/1.11
REM pp3 from code version ## 0.9.3 July 2022 commit b0220bf5cbf550a3b7
REM
REM
REM
REM Total runtime: s
REM
REM
REM ./AB.cell (a186c3e4acc5915692489c59fabd1559)
REM ## AIRSS Version 0.9.3 July 2022 commit b0220bf5cbf550a3b7
REM compiler GCC version 11.4.0
REM options -cpp -imultiarch x86_64-linux-gnu -mtune=generic -march=x86-64 -g -Og -fpre-include=/usr/include/finclude/math-vector-fortran.h
REM cmdline: airss.pl -pp3 max 100 -seed AB 
REM seed -1731319757 -1342380601 76165520 1666387801 947142052 1369396290 -699808021 1180622722
REM
REM AB.pp (46f9ffe235eb1beff4ce53cde2d82919)
REM 
CELL 1.54180   16.99142   16.35000   16.05000   90.00000   90.00000   90.00000
LATT -1
SFAC A  B  
A      1  0.9446434083484  0.1001792909531  0.0822204319180 1.0
A      1  0.0553669564231  0.0999566382430  0.2488160202680 1.0
A      1  0.5626202742649  0.3959479916114  0.5784742458464 1.0
A      1  0.6193713557486  0.5036717284977  0.4166573812188 1.0
A      1  0.5614392407651  0.6066894552837  0.5757134985459 1.0
A      1  0.3870076858398  0.4869062337011  0.5527860326081 1.0
A      1  0.4451381843649  0.6071783399656  0.4122147058386 1.0
B      2  0.4656597799074  0.3565370823136  0.4565871920990 1.0
B      2  0.3763163913954  0.3993177772106  0.3775282836113 1.0
B      2  0.4817256505430  0.4567934500841  0.3767039465554 1.0
B      2  0.4905533217254  0.5023755493338  0.6627325113890 1.0
A      1  0.9438362306066  0.0998631325090  0.4154600439851 1.0
A      1  0.0550809575926  0.0990978493297  0.5826164656601 1.0
A      1  0.9445095159605  0.0999981806429  0.7491613934396 1.0
A      1  0.0554746558297  0.1000579181801  0.9159450129118 1.0
A      1  0.2780239182783  0.1001885914730  0.0827553914436 1.0
A      1  0.3887865706622  0.1001418623622  0.2493273614891 1.0
A      1  0.2771488030047  0.0986669014643  0.4161169546734 1.0
A      1  0.3884418248844  0.0983242296596  0.5824584872927 1.0
A      1  0.2776876041097  0.0991735442364  0.7497915898436 1.0
A      1  0.3888719464910  0.0994413215098  0.9165765724031 1.0
A      1  0.1112500438605  0.2000438718115  0.0825627471913 1.0
A      1  0.2221625584044  0.1996055344948  0.2494546244578 1.0
A      1  0.1089888043229  0.1985324556301  0.4158719524227 1.0
A      1  0.2207639687622  0.1974982562965  0.5839757320107 1.0
A      1  0.1105145921266  0.1995488450698  0.7496136066820 1.0
A      1  0.2218906046483  0.1995771855691  0.9164687051912 1.0
A      1  0.9449985288423  0.3001238072643  0.0821599579323 1.0
A      1  0.0558858504329  0.2998751352405  0.2487426109407 1.0
A      1  0.9439687825268  0.2996013460888  0.4155133810354 1.0
A      1  0.0555040297103  0.2992870354798  0.5824781754730 1.0
A      1  0.9451881094009  0.3000926001271  0.7490479230381 1.0
A      1  0.0563098841385  0.3003061136043  0.9156411570617 1.0
A      1  0.6116604992424  0.1000645154846  0.0820275927281 1.0
A      1  0.7224526402104  0.1002825036123  0.2486395091780 1.0
A      1  0.6109518737788  0.1011222705608  0.4153874740192 1.0
A      1  0.7225642909179  0.1000688810926  0.5821243621071 1.0
A      1  0.6119857886202  0.0999250048003  0.7489047719263 1.0
A      1  0.7226216952434  0.1002721921585  0.9155274536465 1.0
A      1  0.4450856546392  0.1997471982754  0.0832287045070 1.0
A      1  0.5560412804172  0.1997410522033  0.2485848622268 1.0
A      1  0.4429353212531  0.2005963646909  0.4154053190579 1.0
A      1  0.5556778095617  0.1993848595601  0.5816990297497 1.0
A      1  0.4448902421928  0.1963754290093  0.7502368313183 1.0
A      1  0.5559105734950  0.2001462790915  0.9156892182140 1.0
A      1  0.2777258584650  0.3000247127530  0.0831223025398 1.0
A      1  0.3898574800949  0.2998077931033  0.2493061107226 1.0
A      1  0.2722011888237  0.2953155436243  0.4189262099877 1.0
A      1  0.3876319578018  0.2955864166913  0.5859320297344 1.0
A      1  0.2762738677609  0.2980486290035  0.7501407618446 1.0
A      1  0.3882329153758  0.2978452371519  0.9191203622560 1.0
A      1  0.1116142107579  0.4002042226466  0.0819706846829 1.0
A      1  0.2228850919557  0.3990363130184  0.2488076800188 1.0
A      1  0.1086187317945  0.3992880869516  0.4152055533535 1.0
A      1  0.2207893347357  0.3983574936716  0.5816256519162 1.0
A      1  0.1122192540133  0.4003342906863  0.7487345701671 1.0
A      1  0.2233696637766  0.4004384101638  0.9147270482658 1.0
A      1  0.9450611460526  0.5002439228485  0.0820578679061 1.0
A      1  0.0565761705857  0.5003749261244  0.2485140217537 1.0
A      1  0.9444479523149  0.5004806998249  0.4152940129337 1.0
A      1  0.0564073761561  0.5001883471277  0.5817281775067 1.0
A      1  0.9456625574767  0.5002596576060  0.7488310638001 1.0
A      1  0.0565040630310  0.5001427167865  0.9151731117351 1.0
A      1  0.7783458501356  0.2000867920156  0.0820090961293 1.0
A      1  0.8892426145477  0.2001264551005  0.2487161761968 1.0
A      1  0.7776458246379  0.2001886360829  0.4151385678705 1.0
A      1  0.8895795052568  0.1996189876864  0.5822684220346 1.0
A      1  0.7784865882290  0.1999610193636  0.7490037480168 1.0
A      1  0.8894128691457  0.2002959711812  0.9155876977387 1.0
A      1  0.6119308974271  0.2997393640105  0.0820016497498 1.0
A      1  0.7234218071182  0.3002641211968  0.2484091579007 1.0
A      1  0.6110173595925  0.3013409706675  0.4127968167572 1.0
A      1  0.7248851546630  0.2990719710639  0.5818090998860 1.0
A      1  0.6120172510750  0.2997905663243  0.7486442982619 1.0
A      1  0.7229431530572  0.3002382946630  0.9154509112314 1.0
A      1  0.4448007265710  0.4002710158024  0.0829326433036 1.0
A      1  0.5571831722883  0.3996136538650  0.2471087364819 1.0
A      1  0.4424417069869  0.3907113789135  0.7562648804563 1.0
A      1  0.5565457448103  0.4000172806743  0.9169934219448 1.0
A      1  0.2777486614132  0.5003540299337  0.0818255299827 1.0
A      1  0.3882523929280  0.5020886222281  0.2477856230826 1.0
A      1  0.2672948931305  0.5048092668465  0.4092297850254 1.0
A      1  0.2830445751156  0.4995376504329  0.7442004596566 1.0
A      1  0.3897019813297  0.4999467296299  0.9168123041832 1.0
A      1  0.1110589034762  0.6004375716095  0.0808947134639 1.0
A      1  0.2210725308767  0.6024575098695  0.2460355140310 1.0
A      1  0.1078874096292  0.6026483899777  0.4149581529443 1.0
A      1  0.2236534227722  0.5990615876432  0.5809460508045 1.0
A      1  0.1128307006704  0.5995711841597  0.7481995179145 1.0
A      1  0.2235870218696  0.5998132644324  0.9141466910423 1.0
A      1  0.9448180634876  0.7005523091333  0.0817241686865 1.0
A      1  0.0553639346751  0.7011639406573  0.2480432466304 1.0
A      1  0.9445871355494  0.7018914961866  0.4154429005924 1.0
A      1  0.0567159382513  0.7003332378603  0.5824637426633 1.0
A      1  0.9456265561530  0.7003567715804  0.7488631177317 1.0
A      1  0.0564091712179  0.7001008115659  0.9149549718724 1.0
A      1  0.7786428130225  0.4000373712694  0.0822613547803 1.0
A      1  0.8900582643938  0.4002721057049  0.2487377678727 1.0
A      1  0.7794065348860  0.3999962773260  0.4157203083009 1.0
A      1  0.8903800830706  0.4001905381971  0.5823192976378 1.0
A      1  0.7794244524926  0.3997632662430  0.7492037262109 1.0
A      1  0.8899879738112  0.4001792479726  0.9156403813242 1.0
A      1  0.6121280936831  0.5003749925445  0.0826307878881 1.0
A      1  0.7241310813369  0.5004563552524  0.2485341988210 1.0
A      1  0.7251189901238  0.5009614007265  0.5838525414250 1.0
A      1  0.6153224378283  0.5003974118150  0.7524638142988 1.0
A      1  0.7240805707701  0.5002400283449  0.9167472198879 1.0
A      1  0.4449876536834  0.6007709360602  0.0827752211834 1.0
A      1  0.5565288264258  0.5996747537781  0.2492400258368 1.0
A      1  0.4420451075571  0.6098023067069  0.7591618166244 1.0
A      1  0.5568722174721  0.6005373448807  0.9175652805408 1.0
A      1  0.2773199462266  0.7008392556124  0.0820679040502 1.0
A      1  0.3885126310449  0.7020296231392  0.2476484118021 1.0
A      1  0.2774509522679  0.7017547708749  0.4150248541783 1.0
A      1  0.3905038516822  0.6960350232330  0.5836417004295 1.0
A      1  0.2767701169357  0.7016619973932  0.7491408397568 1.0
A      1  0.3879936987060  0.7031362101536  0.9197268252941 1.0
A      1  0.1111119038514  0.8005901749210  0.0819915209355 1.0
A      1  0.2219112847241  0.8013591179132  0.2486781153153 1.0
A      1  0.1111550165576  0.8011195240620  0.4154350351837 1.0
A      1  0.2230971581644  0.7993465091008  0.5821540985405 1.0
A      1  0.1111719108624  0.8005568659994  0.7488316238325 1.0
A      1  0.2218328343151  0.8008016881249  0.9157642029690 1.0
A      1  0.9446279467009  0.9004395100929  0.0820600111710 1.0
A      1  0.0553784174842  0.9005914268180  0.2487094032522 1.0
A      1  0.9447056904434  0.9009447879802  0.4154319604601 1.0
A      1  0.0559472563034  0.8998805628474  0.5823365884565 1.0
A      1  0.9447861732097  0.9003893947558  0.7489922049239 1.0
A      1  0.0554926852100  0.9002657635015  0.9156199028155 1.0
A      1  0.7786452170928  0.6005693257662  0.0821609204609 1.0
A      1  0.8901561750447  0.6005568939951  0.2485454845933 1.0
A      1  0.7806466136758  0.6022668001333  0.4156107858597 1.0
A      1  0.8908156850802  0.6006396067610  0.5823220624356 1.0
A      1  0.7796470207286  0.6009788729297  0.7493327885891 1.0
A      1  0.8900334334384  0.6003097371061  0.9155706049600 1.0
A      1  0.6117342549767  0.7006770271734  0.0827455138202 1.0
A      1  0.7233566253511  0.7004197155258  0.2483026089063 1.0
A      1  0.6136719213067  0.7037846919036  0.4130916847072 1.0
A      1  0.7251912846314  0.7019393844325  0.5819119294916 1.0
A      1  0.6119030395306  0.7002846629536  0.7481697589371 1.0
A      1  0.7228306302680  0.7003405856235  0.9154878766318 1.0
A      1  0.4451685856987  0.8013973927364  0.0829672539820 1.0
A      1  0.5556945473244  0.8007126110626  0.2486441481147 1.0
A      1  0.4448903122084  0.8023517378841  0.4159522544050 1.0
A      1  0.5561755129502  0.8021099964878  0.5820324193999 1.0
A      1  0.4446727607450  0.8029861703967  0.7492450871070 1.0
A      1  0.5558470495599  0.8001826511071  0.9154562166334 1.0
A      1  0.2780780057109  0.9004779480428  0.0824136325052 1.0
A      1  0.3888607942220  0.9010419190501  0.2492151396161 1.0
A      1  0.2778202193866  0.9004633099529  0.4156183572440 1.0
A      1  0.3887648448447  0.8990832763161  0.5823318680559 1.0
A      1  0.2776615661223  0.9004689083982  0.7493138367781 1.0
A      1  0.3889113116623  0.9010255890488  0.9161582528790 1.0
A      1  0.1112706368364  0.0002599650399  0.0823321631512 1.0
A      1  0.2219929198484  0.0003297989686  0.2489628099191 1.0
A      1  0.1108708082317  0.9999663066190  0.4156460714919 1.0
A      1  0.2219478376404  0.9988768432896  0.5826750143233 1.0
A      1  0.1110687158264  0.0000982125195  0.7492841128441 1.0
A      1  0.2219896217678  0.0001427704771  0.9161151472091 1.0
A      1  0.7782356731551  0.8005137696596  0.0818961552574 1.0
A      1  0.8891216430114  0.8006639146136  0.2484499911370 1.0
A      1  0.7788764194078  0.8019883221994  0.4151853041103 1.0
A      1  0.8901376797316  0.8007368770976  0.5823674234413 1.0
A      1  0.7786013532530  0.8005848573751  0.7490090179107 1.0
A      1  0.8894017247600  0.8001866764600  0.9153831621409 1.0
A      1  0.6116242187695  0.9004705304605  0.0820232730681 1.0
A      1  0.7223368872288  0.9003783777474  0.2485882885392 1.0
A      1  0.6116550463533  0.9018686767711  0.4153639275526 1.0
A      1  0.7228276627535  0.9007779809563  0.5821854300380 1.0
A      1  0.6120073512435  0.9003687729469  0.7490283554036 1.0
A      1  0.7225964018998  0.9002726288876  0.9155317081698 1.0
A      1  0.4449199812312  0.0004552583806  0.0826842085306 1.0
A      1  0.5557422712311  0.0004048081420  0.2488178618694 1.0
A      1  0.4446845199923  0.0008670965697  0.4157958400689 1.0
A      1  0.5556927840296  0.0004567048077  0.5824049086706 1.0
A      1  0.4448700133833  0.9997202310964  0.7491202379687 1.0
A      1  0.5558800059796  0.0002254198098  0.9155452507399 1.0
A      1  0.7781013258544  0.0002947322838  0.0820930048920 1.0
A      1  0.8888014094348  0.0002858123759  0.2486835596484 1.0
A      1  0.7778009427177  0.0008807372539  0.4153385649977 1.0
A      1  0.8890227869672  0.0000289351753  0.5822752144018 1.0
A      1  0.7782843766702  0.0002507431596  0.7489573429762 1.0
A      1  0.8890277514283  0.0002184028040  0.9156140568668 1.0
END
