TITL AB-20764-5019-423 0.0000000000 4458.8459578500 -1496.1010912228 0 0  183 (P1) n - 1
REM
REM Run started: at Fri Oct 6 15:35:13 BST 2023 in /home/michal/install/eddp/airss/examples/1.11
REM pp3 from code version ## 0.9.3 July 2022 commit b0220bf5cbf550a3b7
REM
REM
REM
REM Total runtime: s
REM
REM
REM ./AB.cell (a186c3e4acc5915692489c59fabd1559)
REM ## AIRSS Version 0.9.3 July 2022 commit b0220bf5cbf550a3b7
REM compiler GCC version 11.4.0
REM options -cpp -imultiarch x86_64-linux-gnu -mtune=generic -march=x86-64 -g -Og -fpre-include=/usr/include/finclude/math-vector-fortran.h
REM cmdline: airss.pl -pp3 max 100 -seed AB 
REM seed 2125987745 -1052718287 -1039740248 -371253823 -10093119 543658197 -1114337089 886335952
REM
REM AB.pp (46f9ffe235eb1beff4ce53cde2d82919)
REM 
CELL 1.54180   16.99142   16.35000   16.05000   90.00000   90.00000   90.00000
LATT -1
SFAC A  B  
A      1  0.9439389303437  0.0990344073703  0.0820451443519 1.0
A      1  0.0549756782663  0.0990432327257  0.2487289720966 1.0
A      1  0.5650106998811  0.5986241887007  0.5633686013358 1.0
A      1  0.5576380439211  0.3953061660621  0.5772618913376 1.0
A      1  0.3820681052018  0.4876908984917  0.5621661660200 1.0
A      1  0.4413915017734  0.6007727791103  0.4101657712091 1.0
A      1  0.4475118699939  0.3967353421020  0.4082916950953 1.0
B      2  0.5632709738409  0.5070202922061  0.3726058320775 1.0
B      2  0.6446965735953  0.4655288352619  0.4552761451112 1.0
B      2  0.4924190935189  0.5083113719482  0.6636149291737 1.0
B      2  0.3411398858841  0.5937251634099  0.6656797844494 1.0
A      1  0.9445960598487  0.0986529974457  0.4152220721316 1.0
A      1  0.0553028060897  0.0982921012845  0.5818760085873 1.0
A      1  0.9438027868584  0.0986360340010  0.7487336589156 1.0
A      1  0.0544103020461  0.0986413421947  0.9155832107624 1.0
A      1  0.2772844042538  0.0990347381901  0.0821634420981 1.0
A      1  0.3883434121844  0.0996044335247  0.2482315163319 1.0
A      1  0.2778806326418  0.0992475758865  0.4151212963416 1.0
A      1  0.3887606602272  0.0984730014630  0.5814299644212 1.0
A      1  0.2772642145363  0.0981696489776  0.7484068156732 1.0
A      1  0.3881051774614  0.0990375019542  0.9151759637160 1.0
A      1  0.1103722214781  0.1988175870788  0.0823788651676 1.0
A      1  0.2214519896836  0.1989066162077  0.2489946198777 1.0
A      1  0.1112512032833  0.1987810239899  0.4152957813566 1.0
A      1  0.2215681135776  0.1978204401199  0.5815922153642 1.0
A      1  0.1099441707028  0.1976863231801  0.7488304881965 1.0
A      1  0.2208623188404  0.1977792525027  0.9157961832286 1.0
A      1  0.9435441217011  0.2987427364744  0.0825574016387 1.0
A      1  0.0546075503151  0.2986738500662  0.2487505146478 1.0
A      1  0.9447170709648  0.2980208795585  0.4154576586641 1.0
A      1  0.0546841490972  0.2974245632132  0.5821697656925 1.0
A      1  0.9437153962979  0.2977719318427  0.7493029568914 1.0
A      1  0.0544559751509  0.2979223855606  0.9160068507818 1.0
A      1  0.6108228415129  0.0994963123949  0.0812575305750 1.0
A      1  0.7219274846993  0.0990844776122  0.2481274923814 1.0
A      1  0.6115018684835  0.0999130047850  0.4145468427561 1.0
A      1  0.7224875996420  0.0987852296017  0.5815908204369 1.0
A      1  0.6111684081845  0.0992604833694  0.7481175553356 1.0
A      1  0.7215255122958  0.0990084454255  0.9150539932473 1.0
A      1  0.4442359049518  0.1989049196276  0.0817396519245 1.0
A      1  0.5552380335369  0.1994254343887  0.2480609615661 1.0
A      1  0.4449591896246  0.1990359168382  0.4145931749043 1.0
A      1  0.5561144994643  0.1980937339859  0.5811098783909 1.0
A      1  0.4442242229995  0.1973549519558  0.7486607166453 1.0
A      1  0.5549089986723  0.1992557264398  0.9146442633956 1.0
A      1  0.2767862824540  0.2983055357796  0.0824357029795 1.0
A      1  0.3877450789667  0.2985227847627  0.2470484771366 1.0
A      1  0.2781251367620  0.2999265547405  0.4153755137138 1.0
A      1  0.3888371921850  0.2957589914052  0.5821320643300 1.0
A      1  0.2755503872183  0.2953010733938  0.7490871477019 1.0
A      1  0.3871906959681  0.2976375582607  0.9169603262086 1.0
A      1  0.1093389919366  0.3988112980372  0.0823642873096 1.0
A      1  0.2206321272219  0.3981131997502  0.2469418418773 1.0
A      1  0.1094950143884  0.3984727059876  0.4151486882356 1.0
A      1  0.2188838501721  0.3969953562770  0.5826133186187 1.0
A      1  0.1082200855420  0.3968996940685  0.7494170777891 1.0
A      1  0.2203515538164  0.3965941059476  0.9182373591507 1.0
A      1  0.9434408192778  0.4990899805943  0.0826007402770 1.0
A      1  0.0543264031451  0.4988836304900  0.2485952620457 1.0
A      1  0.9430690806093  0.4988649964197  0.4157740404240 1.0
A      1  0.0540591276125  0.4981062901994  0.5820443048638 1.0
A      1  0.9443143553294  0.4988931177174  0.7494235264636 1.0
A      1  0.0555532841862  0.4987966348294  0.9153949395960 1.0
A      1  0.7774080322697  0.1989943442848  0.0818073593892 1.0
A      1  0.8885067037579  0.1987858768530  0.2487103230046 1.0
A      1  0.7781058471991  0.1983018444628  0.4151243857326 1.0
A      1  0.8887550776503  0.1981911305612  0.5820875626357 1.0
A      1  0.7771354317902  0.1986709314599  0.7487909548300 1.0
A      1  0.8879849124318  0.1986487883593  0.9155374917671 1.0
A      1  0.6108228121190  0.2986727596535  0.0813176623175 1.0
A      1  0.7224066788007  0.2985413690012  0.2481167165077 1.0
A      1  0.6130821439697  0.3008598678159  0.4129939988538 1.0
A      1  0.7231843915338  0.2983836171959  0.5822086003156 1.0
A      1  0.6103717194311  0.2998526303126  0.7479838887428 1.0
A      1  0.7216934784586  0.2989717178430  0.9157478311206 1.0
A      1  0.4437031730501  0.3989414655087  0.0816548167578 1.0
A      1  0.5554217221852  0.3986960267734  0.2458929595454 1.0
A      1  0.4400590753055  0.3936626450939  0.7531334759212 1.0
A      1  0.5550261360211  0.3992074276228  0.9160834369468 1.0
A      1  0.2762030194730  0.4990711159443  0.0821523081193 1.0
A      1  0.3880889510577  0.4994363130337  0.2463807159241 1.0
A      1  0.2726748785537  0.4990818069327  0.4080765003241 1.0
A      1  0.2726326639748  0.4908663900135  0.7552651789865 1.0
A      1  0.3879070259428  0.4988922677558  0.9178011769889 1.0
A      1  0.1094079333903  0.5990517363905  0.0818293629483 1.0
A      1  0.2202879191163  0.6001661499335  0.2469534662450 1.0
A      1  0.1078904035674  0.5994341074583  0.4135578860092 1.0
A      1  0.2170460616106  0.5981126371841  0.5767361485383 1.0
A      1  0.1115845601837  0.5986925870751  0.7480360184289 1.0
A      1  0.2216543878824  0.5992870096433  0.9164400588508 1.0
A      1  0.9433225470144  0.6990697199715  0.0824346462742 1.0
A      1  0.0538678837902  0.6994101002494  0.2485282442241 1.0
A      1  0.9419553659284  0.6985780727323  0.4153296001765 1.0
A      1  0.0547029894480  0.6994809935349  0.5817206386346 1.0
A      1  0.9449919641723  0.6992277395613  0.7488993216545 1.0
A      1  0.0554072715575  0.6991414201354  0.9153050565187 1.0
A      1  0.7772158797290  0.3991582096768  0.0837209352316 1.0
A      1  0.8880498874718  0.3990424179054  0.2490403839857 1.0
A      1  0.7802720772233  0.3969700675798  0.4161829225295 1.0
A      1  0.8898132617545  0.3978161117401  0.5830444595829 1.0
A      1  0.7791915601097  0.3975623122707  0.7510724455199 1.0
A      1  0.8893547034729  0.3985709765751  0.9165660775408 1.0
A      1  0.6113727037163  0.4986167323570  0.0832596948379 1.0
A      1  0.7180255134169  0.4988021327301  0.2537478120351 1.0
A      1  0.7264351257370  0.4982085294798  0.5887791465520 1.0
A      1  0.6159276871033  0.4993975531195  0.7539285284791 1.0
A      1  0.7243610862857  0.4985930326091  0.9178082128535 1.0
A      1  0.4430780636216  0.5999601088571  0.0815594237390 1.0
A      1  0.5539232821639  0.6029420270074  0.2431541700367 1.0
A      1  0.4498093466696  0.6110059370902  0.7691429185187 1.0
A      1  0.5597827523302  0.5991344634195  0.9218332140536 1.0
A      1  0.2753602096048  0.6999250848163  0.0832402803635 1.0
A      1  0.3871335450451  0.7010424137029  0.2468745754306 1.0
A      1  0.2765509717941  0.6995681744782  0.4140568033025 1.0
A      1  0.3957340534385  0.7044559094246  0.5748898347450 1.0
A      1  0.2753768995827  0.7038592914993  0.7536416310244 1.0
A      1  0.3856835030580  0.7038968382547  0.9220269017708 1.0
A      1  0.1095217363971  0.7993799097713  0.0825117507594 1.0
A      1  0.2207160738835  0.8002297745513  0.2488244590596 1.0
A      1  0.1102533102446  0.7989025309344  0.4155454110539 1.0
A      1  0.2234848542987  0.7978059956036  0.5824453374606 1.0
A      1  0.1100720084825  0.7997910342505  0.7486436853925 1.0
A      1  0.2199542494588  0.8012204935583  0.9170562570186 1.0
A      1  0.9438455848393  0.8994042085682  0.0819955657449 1.0
A      1  0.0547616280836  0.8994731369557  0.2488378989388 1.0
A      1  0.9442056382825  0.8988737938327  0.4152186510416 1.0
A      1  0.0560085980858  0.8988939653453  0.5818486452865 1.0
A      1  0.9442269078233  0.8993826037953  0.7485422135627 1.0
A      1  0.0544124608174  0.8994917327911  0.9154815967150 1.0
A      1  0.7769004958377  0.5989568975129  0.0832995231561 1.0
A      1  0.8869361361645  0.5984194552632  0.2499382682794 1.0
A      1  0.7724383067302  0.5957269015997  0.4178436508872 1.0
A      1  0.8896141246288  0.5991166434619  0.5823566437122 1.0
A      1  0.7799221715559  0.6001103342451  0.7506948119807 1.0
A      1  0.8895757703972  0.5991537301852  0.9164531818591 1.0
A      1  0.6116804615297  0.7017285430341  0.0815349206445 1.0
A      1  0.7228450524057  0.6996472875961  0.2473071267681 1.0
A      1  0.6109961761469  0.7008388081563  0.4077695563619 1.0
A      1  0.7251197258521  0.7002679788200  0.5814404464686 1.0
A      1  0.6135689501411  0.6991830096935  0.7454991218092 1.0
A      1  0.7230819953040  0.6996508859675  0.9151975550827 1.0
A      1  0.4444705478040  0.8010712283655  0.0825147757831 1.0
A      1  0.5552015468269  0.8018696244779  0.2461566377282 1.0
A      1  0.4452262847046  0.8016169293609  0.4114819713187 1.0
A      1  0.5587698762575  0.7999123609877  0.5793400461579 1.0
A      1  0.4442484498864  0.8026019505376  0.7469544234712 1.0
A      1  0.5548289281988  0.7985623926314  0.9134560106575 1.0
A      1  0.2771622005562  0.8995612611350  0.0821417724008 1.0
A      1  0.3877501537328  0.9007849024583  0.2478230579169 1.0
A      1  0.2775415167366  0.8991849342595  0.4151849523823 1.0
A      1  0.3894304307367  0.9006152390670  0.5805936246875 1.0
A      1  0.2772387895633  0.9004808233791  0.7485492715867 1.0
A      1  0.3881311990565  0.9006020578582  0.9149935489697 1.0
A      1  0.1105324401499  0.9991012204499  0.0821464390192 1.0
A      1  0.2214401172224  0.9996110282150  0.2487245342690 1.0
A      1  0.1110195282191  0.9989372205387  0.4152092189071 1.0
A      1  0.2219838618852  0.9984730338237  0.5816195727594 1.0
A      1  0.1105156339213  0.9989572465470  0.7487178197879 1.0
A      1  0.2211996440113  0.9994763045270  0.9155240805067 1.0
A      1  0.7778329206387  0.7998784953081  0.0813693408798 1.0
A      1  0.8884679933745  0.7994387790625  0.2484410606267 1.0
A      1  0.7774392094149  0.7989129969701  0.4146007942633 1.0
A      1  0.8896283061083  0.7996547361558  0.5819342935008 1.0
A      1  0.7785627063675  0.7998560798901  0.7484500122745 1.0
A      1  0.8889687656958  0.7991856415537  0.9152402286050 1.0
A      1  0.6110823956736  0.9004289548105  0.0803693655695 1.0
A      1  0.7220644675101  0.8995117863549  0.2477314726846 1.0
A      1  0.6117253826184  0.9005586480780  0.4138991245238 1.0
A      1  0.7232803688576  0.8997202971841  0.5813089027709 1.0
A      1  0.6115513884855  0.8993618263831  0.7476474283243 1.0
A      1  0.7217817753888  0.8991322199684  0.9146391909235 1.0
A      1  0.4441600020511  0.9998622429305  0.0814529692655 1.0
A      1  0.5552021471799  0.0001788577097  0.2476945414685 1.0
A      1  0.4447234448565  0.0000797912996  0.4143561830121 1.0
A      1  0.5560260678949  0.9991856995641  0.5811651088031 1.0
A      1  0.4446020440128  0.9997374413392  0.7480246795486 1.0
A      1  0.5550709717142  0.9991982856886  0.9143602825240 1.0
A      1  0.7774821646530  0.9994871013780  0.0815305530458 1.0
A      1  0.8884859945966  0.9991858917769  0.2484618657788 1.0
A      1  0.7780529439181  0.9990804104429  0.4147497708378 1.0
A      1  0.8891761909388  0.9989445987970  0.5817589238002 1.0
A      1  0.7776439190683  0.9992763518986  0.7483581083236 1.0
A      1  0.8880424618357  0.9989867292111  0.9152387129006 1.0
END
