TITL AB-20764-5019-31 0.0000000000 4458.8459578500 -1495.9355747903 0 0  183 (P1) n - 1
REM
REM Run started: at Fri Oct 6 15:20:21 BST 2023 in /home/michal/install/eddp/airss/examples/1.11
REM pp3 from code version ## 0.9.3 July 2022 commit b0220bf5cbf550a3b7
REM
REM
REM
REM Total runtime: s
REM
REM
REM ./AB.cell (a186c3e4acc5915692489c59fabd1559)
REM ## AIRSS Version 0.9.3 July 2022 commit b0220bf5cbf550a3b7
REM compiler GCC version 11.4.0
REM options -cpp -imultiarch x86_64-linux-gnu -mtune=generic -march=x86-64 -g -Og -fpre-include=/usr/include/finclude/math-vector-fortran.h
REM cmdline: airss.pl -pp3 max 100 -seed AB 
REM seed -205946307 -781673098 1375532435 -1288740223 -938472017 -280050475 -1856389171 1310399881
REM
REM AB.pp (46f9ffe235eb1beff4ce53cde2d82919)
REM 
CELL 1.54180   16.99142   16.35000   16.05000   90.00000   90.00000   90.00000
LATT -1
SFAC A  B  
A      1  0.9431975204812  0.0992737016227  0.0821441259368 1.0
A      1  0.0545790555183  0.1000026661799  0.2493474006004 1.0
A      1  0.3755018480562  0.4987653676504  0.5918819897401 1.0
A      1  0.5504208669714  0.4448919004609  0.5842207268514 1.0
A      1  0.4413329774843  0.4030830383152  0.4117220782001 1.0
A      1  0.4574648624491  0.5923749407744  0.4488362147184 1.0
A      1  0.6161816734007  0.4962795148647  0.4064146670241 1.0
B      2  0.5120643419889  0.3121944312668  0.5161756861576 1.0
B      2  0.5165789269982  0.6199176629296  0.6158945128365 1.0
B      2  0.6088837049432  0.5949517965513  0.5377848184308 1.0
B      2  0.4918245063556  0.6905554825777  0.3350338191807 1.0
A      1  0.9435288236523  0.0991044887081  0.4157699766138 1.0
A      1  0.0525303032826  0.0995209712241  0.5828067509414 1.0
A      1  0.9414517410995  0.0992928799728  0.7488462778332 1.0
A      1  0.0532413309871  0.0995548354564  0.9160658502478 1.0
A      1  0.2763262833011  0.0998790076428  0.0833383715006 1.0
A      1  0.3875260177670  0.1005748027057  0.2498590851141 1.0
A      1  0.2764288668632  0.1008154919819  0.4166686589819 1.0
A      1  0.3860247318263  0.0995955263204  0.5834161268303 1.0
A      1  0.2753568607409  0.0997041578018  0.7501315167069 1.0
A      1  0.3868337978779  0.0994960752049  0.9166753268371 1.0
A      1  0.1098274597296  0.1994731053892  0.0830304769625 1.0
A      1  0.2213440859753  0.2005418903661  0.2500457064364 1.0
A      1  0.1100505425651  0.1996759530257  0.4162302723553 1.0
A      1  0.2181840583828  0.1988576398099  0.5837601461808 1.0
A      1  0.1081071348045  0.1991081644105  0.7499835972008 1.0
A      1  0.2199789441911  0.1992303883647  0.9171301634884 1.0
A      1  0.9435256904815  0.2988413069740  0.0819790360682 1.0
A      1  0.0555948357564  0.2996558618890  0.2493260605180 1.0
A      1  0.9444697293217  0.2986332170103  0.4152037272037 1.0
A      1  0.0524178122337  0.2986178758736  0.5828346420755 1.0
A      1  0.9415356476249  0.2985345543885  0.7490712279410 1.0
A      1  0.0534756162393  0.2990872600396  0.9164413457058 1.0
A      1  0.6097214485368  0.0992972888835  0.0816184545812 1.0
A      1  0.7211299910589  0.0995095022204  0.2485490129788 1.0
A      1  0.6102902499121  0.0988073192900  0.4160335355781 1.0
A      1  0.7217587540258  0.0967756839790  0.5821181219387 1.0
A      1  0.6100832401767  0.0962160315707  0.7521368359062 1.0
A      1  0.7207149573705  0.0989821324936  0.9156796692967 1.0
A      1  0.4429133856695  0.2000230621042  0.0824076376945 1.0
A      1  0.5542038148813  0.1983650840244  0.2473661410180 1.0
A      1  0.4441456550971  0.2011874070149  0.4169913844540 1.0
A      1  0.5559348635637  0.1855349827221  0.5888470733654 1.0
A      1  0.4415774605944  0.1993566647356  0.7506361939739 1.0
A      1  0.5536909082389  0.1992774685671  0.9146693057978 1.0
A      1  0.2761744347299  0.2999664347999  0.0837092776743 1.0
A      1  0.3877583160105  0.3006116872089  0.2492734647788 1.0
A      1  0.2766019759425  0.3004707980502  0.4174282477359 1.0
A      1  0.3799325822816  0.2995242818710  0.5879902464507 1.0
A      1  0.2733842480188  0.2997685051240  0.7522504418080 1.0
A      1  0.3864683952585  0.2994473841028  0.9169713879230 1.0
A      1  0.1095595517242  0.3996897880569  0.0836983191691 1.0
A      1  0.2225128628220  0.4009874461141  0.2507559556535 1.0
A      1  0.1101966509674  0.3998944660729  0.4160369083414 1.0
A      1  0.2156815002446  0.3989059502344  0.5842130604061 1.0
A      1  0.1068016999536  0.3988965631084  0.7504615239741 1.0
A      1  0.2192912150688  0.3991393348315  0.9185709845785 1.0
A      1  0.9427322346016  0.4991906746367  0.0820537214174 1.0
A      1  0.0546927471593  0.4995991280560  0.2494473085703 1.0
A      1  0.9444858385996  0.4992275764486  0.4155391006288 1.0
A      1  0.0529004559588  0.4994919945382  0.5828772741521 1.0
A      1  0.9416747404987  0.4989250848446  0.7489186882354 1.0
A      1  0.0533020062028  0.4992892257217  0.9163245658821 1.0
A      1  0.7769183658901  0.1985523082793  0.0807475825275 1.0
A      1  0.8887127006777  0.1990663573845  0.2484052169757 1.0
A      1  0.7782993381361  0.1980140749079  0.4149322936558 1.0
A      1  0.8854015822104  0.1995278869534  0.5821015197813 1.0
A      1  0.7738492681351  0.1994040394796  0.7473461153453 1.0
A      1  0.8866209487852  0.1992831761912  0.9149083657716 1.0
A      1  0.6101543361521  0.2982942045886  0.0803351735396 1.0
A      1  0.7239448732857  0.2986778083682  0.2447524846359 1.0
A      1  0.6167804945150  0.2977740635089  0.4061105425348 1.0
A      1  0.7144166242640  0.3007397620404  0.5791587986217 1.0
A      1  0.6065789211771  0.3018270075619  0.7447620756598 1.0
A      1  0.7197399905047  0.2991286092257  0.9134542385935 1.0
A      1  0.4426585051391  0.4005224332198  0.0832285860936 1.0
A      1  0.5551531089554  0.3971103048266  0.2451281606028 1.0
A      1  0.4415698846753  0.3997875618473  0.7507461001395 1.0
A      1  0.5531280131504  0.3988404251682  0.9151210246265 1.0
A      1  0.2761620036680  0.5005770428550  0.0846587660982 1.0
A      1  0.3897437136633  0.5057738451125  0.2520603488539 1.0
A      1  0.2772934878726  0.5015782840281  0.4180775230421 1.0
A      1  0.2711791707439  0.4990488530988  0.7539546177999 1.0
A      1  0.3857077343487  0.4989805531836  0.9181230028274 1.0
A      1  0.1081200393105  0.5995067463484  0.0828509489521 1.0
A      1  0.2186773420645  0.6001093556665  0.2496467138912 1.0
A      1  0.1102956675734  0.6002213975939  0.4163222912680 1.0
A      1  0.2169431549472  0.6012287635319  0.5840515615100 1.0
A      1  0.1069367047314  0.5996413940042  0.7500242505406 1.0
A      1  0.2188849672668  0.5994396857959  0.9171219188744 1.0
A      1  0.9424875732524  0.6997495502299  0.0821338355522 1.0
A      1  0.0537824934658  0.7002144886879  0.2490929210028 1.0
A      1  0.9442406904281  0.6997280719555  0.4154804851323 1.0
A      1  0.0533842609222  0.7005745961531  0.5828571429757 1.0
A      1  0.9423169884811  0.6998788527849  0.7493722072256 1.0
A      1  0.0534745049291  0.7000223103633  0.9161703219300 1.0
A      1  0.7776981315275  0.3981205298486  0.0797850761142 1.0
A      1  0.8901583366852  0.3987098283553  0.2480194473167 1.0
A      1  0.7802411392985  0.3981783927089  0.4138719841215 1.0
A      1  0.8878825119427  0.3978616144358  0.5819788567272 1.0
A      1  0.7754734773342  0.3985447130688  0.7479744038579 1.0
A      1  0.8875055894475  0.3989382476759  0.9147982181979 1.0
A      1  0.6114503120052  0.4971565508332  0.0781407083504 1.0
A      1  0.7259413665715  0.4973438330314  0.2450557237989 1.0
A      1  0.7275859755405  0.4994720873167  0.5819819212104 1.0
A      1  0.6114090496581  0.5028143528863  0.7546355360942 1.0
A      1  0.7222329826949  0.4991840888335  0.9154756789150 1.0
A      1  0.4429214435006  0.6004601465551  0.0818195661593 1.0
A      1  0.5616501068126  0.5929585933553  0.2402549456035 1.0
A      1  0.4388872055002  0.5983374323064  0.7544788574640 1.0
A      1  0.5530423186767  0.5999469305518  0.9169110859708 1.0
A      1  0.2724085739122  0.7003480704973  0.0793946445087 1.0
A      1  0.3775813396316  0.7033595507542  0.2395351244508 1.0
A      1  0.2806434338586  0.6991224728071  0.4157650036014 1.0
A      1  0.3819907377848  0.7020330543805  0.5885336349080 1.0
A      1  0.2731167338014  0.6996546283868  0.7516459098016 1.0
A      1  0.3856448598322  0.7002075664354  0.9169147832037 1.0
A      1  0.1081744035276  0.8003448833941  0.0825477839935 1.0
A      1  0.2178587047117  0.8018890723935  0.2496035960807 1.0
A      1  0.1103915885756  0.7994629721816  0.4162103131057 1.0
A      1  0.2190683123517  0.8008058177867  0.5828303607949 1.0
A      1  0.1082425836464  0.8000566914898  0.7494332332452 1.0
A      1  0.2191615652338  0.8008993681264  0.9159428111335 1.0
A      1  0.9425858903521  0.8998445933535  0.0822634405122 1.0
A      1  0.0535809576806  0.9006834434118  0.2493482721602 1.0
A      1  0.9441387620647  0.8997663768246  0.4156581993796 1.0
A      1  0.0536068884834  0.9001678095037  0.5826348309621 1.0
A      1  0.9423062075674  0.8995741462485  0.7491971872668 1.0
A      1  0.0531460250837  0.9000678102512  0.9159613321493 1.0
A      1  0.7766392175327  0.5996663742631  0.0810745346794 1.0
A      1  0.8890957574498  0.5995754997056  0.2483657356308 1.0
A      1  0.7795378933381  0.5987148653129  0.4146336151146 1.0
A      1  0.8895371671033  0.6000260287606  0.5821987607373 1.0
A      1  0.7773674864899  0.5995673073506  0.7493258380708 1.0
A      1  0.8877317265542  0.5995931757585  0.9156146883544 1.0
A      1  0.6103437415845  0.7001659763791  0.0805667417574 1.0
A      1  0.7227245907101  0.6993265834064  0.2475830431125 1.0
A      1  0.6191674347789  0.7015502815668  0.4157128229342 1.0
A      1  0.7233580360190  0.6987330693270  0.5834695318151 1.0
A      1  0.6077177558987  0.6969825609567  0.7467420512148 1.0
A      1  0.7201764748787  0.6991284057096  0.9143949668925 1.0
A      1  0.4430132320085  0.8008900877785  0.0807785543556 1.0
A      1  0.5557382961439  0.8021143935183  0.2452636216205 1.0
A      1  0.4403026287984  0.8068139719537  0.4222470280401 1.0
A      1  0.5531245277643  0.7906772612680  0.5818896692167 1.0
A      1  0.4418428382527  0.7994094320537  0.7506459130867 1.0
A      1  0.5536161237183  0.7990137031525  0.9149044034465 1.0
A      1  0.2760336286351  0.8997998667806  0.0833267380219 1.0
A      1  0.3874938200435  0.9004849786618  0.2503852956444 1.0
A      1  0.2751456028426  0.9011693723872  0.4166519603271 1.0
A      1  0.3855444975845  0.9009203470025  0.5855831236295 1.0
A      1  0.2750186401224  0.8998485472172  0.7500991304113 1.0
A      1  0.3863495156759  0.9000647777209  0.9161438701415 1.0
A      1  0.1095835532005  0.9997707152023  0.0828350821802 1.0
A      1  0.2208695178487  0.0008184634154  0.2497111141152 1.0
A      1  0.1097377275184  0.0001010106425  0.4161520149201 1.0
A      1  0.2194935497836  0.0002602917876  0.5833014898723 1.0
A      1  0.1086230529035  0.9998037373657  0.7496056025073 1.0
A      1  0.2199461225661  0.0000164287238  0.9165972353405 1.0
A      1  0.7763137449581  0.7997158711414  0.0815725938958 1.0
A      1  0.8881090299770  0.7999038433484  0.2484560393363 1.0
A      1  0.7797032703009  0.8003861737438  0.4152241265745 1.0
A      1  0.8879534829921  0.7998191276355  0.5825983383316 1.0
A      1  0.7757869253580  0.7989757451132  0.7491628340221 1.0
A      1  0.8868838078405  0.7995789212487  0.9156201500226 1.0
A      1  0.6101061820320  0.9002986698390  0.0811906139431 1.0
A      1  0.7216015722071  0.8996303944918  0.2485725618487 1.0
A      1  0.6099232402930  0.8987440780263  0.4149141683236 1.0
A      1  0.7203156632802  0.8971917048139  0.5818288138138 1.0
A      1  0.6089919553128  0.8968298555725  0.7486921269908 1.0
A      1  0.7202810070459  0.8992862645251  0.9152069432914 1.0
A      1  0.4427760369017  0.0000369782141  0.0832597939831 1.0
A      1  0.5543781047408  0.9999970168197  0.2491182340313 1.0
A      1  0.4429644102986  0.0023697056061  0.4167362477478 1.0
A      1  0.5536050585567  0.9921580404715  0.5826607476936 1.0
A      1  0.4426077069669  0.9997663564125  0.7500155783567 1.0
A      1  0.5532360263365  0.9986170482725  0.9162744743191 1.0
A      1  0.7764608774327  0.9993791980058  0.0821432031370 1.0
A      1  0.8876364756116  0.9998230999639  0.2489787808429 1.0
A      1  0.7767328980206  0.9988317161147  0.4152704411361 1.0
A      1  0.8871106562832  0.9988616992913  0.5821103170857 1.0
A      1  0.7759019565417  0.9982949810976  0.7487878127006 1.0
A      1  0.8868428998260  0.9994329009931  0.9156068462577 1.0
END
