TITL AB-20764-5019-545 0.0000000000 4458.8459578500 -1498.1055454016 0 0  183 (P1) n - 1
REM
REM Run started: at Fri Oct 6 15:39:39 BST 2023 in /home/michal/install/eddp/airss/examples/1.11
REM pp3 from code version ## 0.9.3 July 2022 commit b0220bf5cbf550a3b7
REM
REM
REM
REM Total runtime: s
REM
REM
REM ./AB.cell (a186c3e4acc5915692489c59fabd1559)
REM ## AIRSS Version 0.9.3 July 2022 commit b0220bf5cbf550a3b7
REM compiler GCC version 11.4.0
REM options -cpp -imultiarch x86_64-linux-gnu -mtune=generic -march=x86-64 -g -Og -fpre-include=/usr/include/finclude/math-vector-fortran.h
REM cmdline: airss.pl -pp3 max 100 -seed AB 
REM seed 1436625324 -138982162 804198716 -1405813658 -1312346921 -1062507912 1184800694 287264666
REM
REM AB.pp (46f9ffe235eb1beff4ce53cde2d82919)
REM 
CELL 1.54180   16.99142   16.35000   16.05000   90.00000   90.00000   90.00000
LATT -1
SFAC A  B  
A      1  0.9452862341225  0.0985350063195  0.0821767821087 1.0
A      1  0.0562626577335  0.0984785877394  0.2487694115335 1.0
A      1  0.4443433024696  0.3986009459107  0.4177079256716 1.0
A      1  0.5583199123402  0.3943878569467  0.5819017781352 1.0
A      1  0.6130972099078  0.4966949735877  0.4135690369018 1.0
A      1  0.4463473215834  0.5933206182670  0.4078389904821 1.0
A      1  0.5662361271420  0.5895272128076  0.5808620141715 1.0
B      2  0.4847720167693  0.7036486345793  0.6490198683922 1.0
B      2  0.4834620210561  0.7047887121418  0.5160853295624 1.0
B      2  0.3587380182787  0.4623918658537  0.5485043729339 1.0
B      2  0.4473718007701  0.4959622792549  0.6298662896703 1.0
A      1  0.9460880657858  0.0986369041157  0.4152573883818 1.0
A      1  0.0582444800150  0.0972110324313  0.5821385266596 1.0
A      1  0.9462704969529  0.0985755063450  0.7490655671485 1.0
A      1  0.0564000501712  0.0983567341089  0.9155436867766 1.0
A      1  0.2782372846292  0.0984580269702  0.0824197722224 1.0
A      1  0.3890448233079  0.0994659568580  0.2494477102550 1.0
A      1  0.2779864606769  0.0985530417826  0.4155586438857 1.0
A      1  0.3890771184493  0.0974407295370  0.5825286945410 1.0
A      1  0.2780575043251  0.0980194533113  0.7492307967347 1.0
A      1  0.3891283835810  0.0988475127719  0.9158994579104 1.0
A      1  0.1116989577987  0.1983571289733  0.0821417539425 1.0
A      1  0.2225838657565  0.1987183165291  0.2488811667219 1.0
A      1  0.1119780698288  0.1985304591432  0.4153180368665 1.0
A      1  0.2235622288961  0.1969134160963  0.5822831136159 1.0
A      1  0.1120741937079  0.1983547122966  0.7489309816672 1.0
A      1  0.2225806838068  0.1984429732729  0.9158463174864 1.0
A      1  0.9452185745164  0.2983043866216  0.0819571737294 1.0
A      1  0.0558610313456  0.2981616862343  0.2484739244981 1.0
A      1  0.9449738120295  0.2980813661955  0.4151307439996 1.0
A      1  0.0552994202518  0.2955561742672  0.5820451681576 1.0
A      1  0.9455022551220  0.2983098266883  0.7490041948619 1.0
A      1  0.0563747445569  0.2983116997417  0.9151823255887 1.0
A      1  0.6120325106329  0.0989379134932  0.0824654282588 1.0
A      1  0.7227631109598  0.0986390515067  0.2487202936781 1.0
A      1  0.6122279771765  0.0996147100027  0.4153740619731 1.0
A      1  0.7238486316437  0.0994333032701  0.5823635093349 1.0
A      1  0.6126530587155  0.0992414948930  0.7496503508687 1.0
A      1  0.7230240682150  0.0985375358205  0.9159919819479 1.0
A      1  0.4449376007063  0.1985577985062  0.0830229400077 1.0
A      1  0.5556868128602  0.1985969707807  0.2491874502448 1.0
A      1  0.4445154672563  0.1993149981800  0.4167951932369 1.0
A      1  0.5555306721860  0.1985419288674  0.5826981736502 1.0
A      1  0.4449487449777  0.1974141658591  0.7491854718158 1.0
A      1  0.5559379070663  0.1985402412284  0.9161737710028 1.0
A      1  0.2780215683748  0.2987127565962  0.0823726010205 1.0
A      1  0.3890053187803  0.2985594731981  0.2497356708356 1.0
A      1  0.2779213651375  0.2990166926117  0.4158253880895 1.0
A      1  0.3890976633940  0.3011029611921  0.5841258982456 1.0
A      1  0.2780336854903  0.2978757730427  0.7491906565910 1.0
A      1  0.3889934801957  0.2972511370139  0.9172108649650 1.0
A      1  0.1115790673907  0.3981679888939  0.0814036531076 1.0
A      1  0.2217941278112  0.3983763682184  0.2487206815445 1.0
A      1  0.1100005785051  0.3986808070186  0.4149405550478 1.0
A      1  0.2189594991264  0.3951794157878  0.5812294004292 1.0
A      1  0.1117417439578  0.3990220238481  0.7482539084650 1.0
A      1  0.2229373321961  0.3988459207986  0.9136247785057 1.0
A      1  0.9445910949306  0.4983959047670  0.0817656614130 1.0
A      1  0.0552142121574  0.4979594465963  0.2472245527806 1.0
A      1  0.9422080287416  0.4979470476303  0.4142292297699 1.0
A      1  0.0466557151192  0.4926493230793  0.5816748275379 1.0
A      1  0.9430223614188  0.4979198955062  0.7495306881493 1.0
A      1  0.0556374599561  0.4979486003948  0.9156638210790 1.0
A      1  0.7787268506564  0.1984877396351  0.0823182147040 1.0
A      1  0.8894793816900  0.1982373069402  0.2486535088741 1.0
A      1  0.7790228709243  0.1984538127533  0.4152111938133 1.0
A      1  0.8901758051800  0.1970107820253  0.5821891605800 1.0
A      1  0.7794520927181  0.1984268242816  0.7493460696351 1.0
A      1  0.8898200365178  0.1982129289510  0.9156500252889 1.0
A      1  0.6118312377005  0.2981611914094  0.0828551874535 1.0
A      1  0.7225480090419  0.2982364007811  0.2486282009805 1.0
A      1  0.6117740530537  0.2977702327776  0.4150372881242 1.0
A      1  0.7229639863303  0.2963998201231  0.5822697876889 1.0
A      1  0.6125185446182  0.2973844561065  0.7498500633452 1.0
A      1  0.7229416588817  0.2980020737096  0.9161736784240 1.0
A      1  0.4451253170861  0.3978042440351  0.0828868977396 1.0
A      1  0.5554644062373  0.3983690742022  0.2492763703083 1.0
A      1  0.4460085441210  0.3941594354831  0.7538679370002 1.0
A      1  0.5567207669124  0.3982331546546  0.9172910480626 1.0
A      1  0.2774183238860  0.4983933130482  0.0818184342319 1.0
A      1  0.3881131391479  0.4971288249411  0.2470349576959 1.0
A      1  0.2757350010938  0.4996157113152  0.4146989142718 1.0
A      1  0.2829743941639  0.4983448153015  0.7398492437090 1.0
A      1  0.3887632885162  0.4967169081830  0.9181038370953 1.0
A      1  0.1114240136169  0.5983575445292  0.0812186576694 1.0
A      1  0.2220108281086  0.5987205475081  0.2482714023448 1.0
A      1  0.1069872665996  0.5983222892002  0.4115021818558 1.0
A      1  0.2002242092000  0.5902752887515  0.5797668937807 1.0
A      1  0.1093705748296  0.5975886324250  0.7505213818463 1.0
A      1  0.2233803528900  0.5974925883338  0.9133540617975 1.0
A      1  0.9446807009289  0.6984885479590  0.0817641077523 1.0
A      1  0.0553733083956  0.6989846180073  0.2474420547706 1.0
A      1  0.9428574280932  0.6987475439331  0.4146312110470 1.0
A      1  0.0506284173118  0.6995903290455  0.5817999390512 1.0
A      1  0.9436358115158  0.6982549367478  0.7492484309628 1.0
A      1  0.0560524092149  0.6983943921244  0.9155778480385 1.0
A      1  0.7784732581663  0.3981663010978  0.0821532034499 1.0
A      1  0.8892618804358  0.3978572912341  0.2481657261778 1.0
A      1  0.7781308423712  0.3972739225699  0.4146909757785 1.0
A      1  0.8873204803851  0.3946857710213  0.5821081395611 1.0
A      1  0.7782286789027  0.3974176732390  0.7497360708137 1.0
A      1  0.8895037146445  0.3978536429469  0.9158048332860 1.0
A      1  0.6121545926581  0.4977697708465  0.0830470073257 1.0
A      1  0.7233877159525  0.4981946916574  0.2483465376464 1.0
A      1  0.7262375606616  0.4950406019994  0.5822331319115 1.0
A      1  0.6119872003019  0.4966667913906  0.7501717433443 1.0
A      1  0.7234924329178  0.4981056154331  0.9159995644303 1.0
A      1  0.4451939487820  0.5980639382433  0.0826493554423 1.0
A      1  0.5573152474534  0.5986442511899  0.2472693108163 1.0
A      1  0.4476398168886  0.5957868874483  0.7606398454009 1.0
A      1  0.5583891957067  0.5984397028809  0.9188928334655 1.0
A      1  0.2775965343533  0.6982625945629  0.0819386587338 1.0
A      1  0.3891640066538  0.6983685905138  0.2470243166336 1.0
A      1  0.2798681469757  0.6969983605934  0.4162777472257 1.0
A      1  0.3702431127974  0.6278204628872  0.5830711772177 1.0
A      1  0.2802522749692  0.6968820389368  0.7478799044228 1.0
A      1  0.3893874426576  0.6988750104812  0.9186968319677 1.0
A      1  0.1115274085953  0.7984792713348  0.0818686903483 1.0
A      1  0.2228568977699  0.7983088739951  0.2492568162499 1.0
A      1  0.1118653637529  0.7971676381577  0.4156706778893 1.0
A      1  0.2253924480913  0.7918224794017  0.5820906467040 1.0
A      1  0.1121277086317  0.7969697075788  0.7481762219975 1.0
A      1  0.2229940563416  0.7979123971132  0.9148388843880 1.0
A      1  0.9452213968904  0.8984531070684  0.0821056695543 1.0
A      1  0.0563281056259  0.8983711202026  0.2489452430718 1.0
A      1  0.9455107111471  0.8983351408421  0.4155914911789 1.0
A      1  0.0582605454981  0.8974155119572  0.5820483560199 1.0
A      1  0.9457458306302  0.8981574627595  0.7486026981766 1.0
A      1  0.0565012998715  0.8981194197538  0.9151662200937 1.0
A      1  0.7781794390289  0.5985727331895  0.0821076869696 1.0
A      1  0.8891670554397  0.5985311407010  0.2482882770508 1.0
A      1  0.7768928027614  0.5985903573165  0.4153843515082 1.0
A      1  0.8876882946396  0.5980974511725  0.5820051094073 1.0
A      1  0.7771368455589  0.5982512075010  0.7489287549931 1.0
A      1  0.8893694625590  0.5983886348723  0.9155693443726 1.0
A      1  0.6123797612390  0.6989492167212  0.0826836317778 1.0
A      1  0.7231995555632  0.6988567576235  0.2490898675630 1.0
A      1  0.6107548321139  0.6997924121458  0.4152581209416 1.0
A      1  0.7243233509105  0.6989614619839  0.5821841458382 1.0
A      1  0.6116196142513  0.6994285472191  0.7493021576825 1.0
A      1  0.7235627538261  0.6988859893367  0.9155094896617 1.0
A      1  0.4451499192146  0.7990430985411  0.0826594287483 1.0
A      1  0.5570379261436  0.7991907873188  0.2471621182740 1.0
A      1  0.4433569995847  0.8052284498238  0.4058530201003 1.0
A      1  0.5704067675403  0.8121613844460  0.5824466926559 1.0
A      1  0.4436755963025  0.8047273492609  0.7585860915253 1.0
A      1  0.5572488055998  0.7988788278738  0.9176383098344 1.0
A      1  0.2772176508296  0.8983699039749  0.0821906354055 1.0
A      1  0.3881557576553  0.9010254563112  0.2458003922435 1.0
A      1  0.2776374720059  0.8984718002842  0.4155847875817 1.0
A      1  0.3934394754915  0.8894023842897  0.5822712142649 1.0
A      1  0.2778496862126  0.8981789912327  0.7488521567424 1.0
A      1  0.3884181513983  0.9006769351911  0.9188936316607 1.0
A      1  0.1114026643975  0.9984801411142  0.0821545491608 1.0
A      1  0.2222606814215  0.9988838794237  0.2488581793679 1.0
A      1  0.1119129413434  0.9980796231282  0.4155420249139 1.0
A      1  0.2250989448126  0.9953133387024  0.5822462868002 1.0
A      1  0.1120243120030  0.9978884226657  0.7487584916495 1.0
A      1  0.2223563295627  0.9985588714404  0.9156746139960 1.0
A      1  0.7785184917121  0.7987368759923  0.0822141142064 1.0
A      1  0.8893280079642  0.7989254362979  0.2486132434115 1.0
A      1  0.7776746629778  0.7995028690743  0.4155991568771 1.0
A      1  0.8893793606527  0.7993801145392  0.5821139793491 1.0
A      1  0.7781709707826  0.7992568940569  0.7488161649642 1.0
A      1  0.8897212486055  0.7987274915656  0.9154529284805 1.0
A      1  0.6120828970575  0.8995339274753  0.0823401524784 1.0
A      1  0.7233707377142  0.8991500201264  0.2482889098276 1.0
A      1  0.6130231048498  0.9014674148877  0.4133262525789 1.0
A      1  0.7293769119283  0.9035338311637  0.5823200876811 1.0
A      1  0.6133373986344  0.9011337006759  0.7515252770546 1.0
A      1  0.7236296893118  0.8990323615331  0.9162853476861 1.0
A      1  0.4452547777254  0.9997185652401  0.0824846735711 1.0
A      1  0.5556714114173  0.9992292846484  0.2486851575975 1.0
A      1  0.4448278391654  0.0003270125250  0.4161729463541 1.0
A      1  0.5568309604183  0.0028962937944  0.5824802336216 1.0
A      1  0.4450212444476  0.9995712379746  0.7487116919318 1.0
A      1  0.5558693547719  0.9990701869391  0.9161668318732 1.0
A      1  0.7789182727816  0.9988781607832  0.0822853782487 1.0
A      1  0.8900118970712  0.9986185361935  0.2486760863880 1.0
A      1  0.7798567456953  0.9997782433503  0.4148618920802 1.0
A      1  0.8928198488984  0.9993717955126  0.5821836350992 1.0
A      1  0.7801193330975  0.9996295867977  0.7497009844451 1.0
A      1  0.8902199034814  0.9985052671892  0.9156931820258 1.0
END
