TITL AB-20764-5019-94 0.0000000000 4458.8459578500 -1495.9621983971 0 0  183 (P1) n - 1
REM
REM Run started: at Fri Oct 6 15:22:39 BST 2023 in /home/michal/install/eddp/airss/examples/1.11
REM pp3 from code version ## 0.9.3 July 2022 commit b0220bf5cbf550a3b7
REM
REM
REM
REM Total runtime: s
REM
REM
REM ./AB.cell (a186c3e4acc5915692489c59fabd1559)
REM ## AIRSS Version 0.9.3 July 2022 commit b0220bf5cbf550a3b7
REM compiler GCC version 11.4.0
REM options -cpp -imultiarch x86_64-linux-gnu -mtune=generic -march=x86-64 -g -Og -fpre-include=/usr/include/finclude/math-vector-fortran.h
REM cmdline: airss.pl -pp3 max 100 -seed AB 
REM seed 1195936871 1012432555 -331029600 -1417408304 1466533187 -1236588484 -124962340 312394477
REM
REM AB.pp (46f9ffe235eb1beff4ce53cde2d82919)
REM 
CELL 1.54180   16.99142   16.35000   16.05000   90.00000   90.00000   90.00000
LATT -1
SFAC A  B  
A      1  0.9430535235188  0.0998253842527  0.0838069482539 1.0
A      1  0.0536464459123  0.0991136616209  0.2502594824421 1.0
A      1  0.5624757297605  0.5941969760616  0.5966479262080 1.0
A      1  0.6101614291431  0.5012086650561  0.4183413140109 1.0
A      1  0.4357393133907  0.5838869202989  0.4207998474538 1.0
A      1  0.5293807278817  0.4065344282188  0.5728864796666 1.0
A      1  0.4386605772699  0.3918941022638  0.4062337814904 1.0
B      2  0.4151644420575  0.5291798749669  0.6201517490150 1.0
B      2  0.3627744116454  0.4502505892192  0.5378015899670 1.0
B      2  0.6530016793108  0.4032117959371  0.6586116302983 1.0
B      2  0.5005753086472  0.6967538929092  0.5006653645205 1.0
A      1  0.9431553316316  0.0994015698938  0.4169361857735 1.0
A      1  0.0541901237021  0.0984473392045  0.5840913855046 1.0
A      1  0.9432245463584  0.1001115559522  0.7509899092062 1.0
A      1  0.0540797380739  0.0997781083530  0.9172700566723 1.0
A      1  0.2762170477458  0.0994726941190  0.0838267153841 1.0
A      1  0.3869789396885  0.0990158741969  0.2505760661026 1.0
A      1  0.2758252555808  0.0991686179743  0.4173200413425 1.0
A      1  0.3871196870182  0.0975044858600  0.5845105167433 1.0
A      1  0.2759159459748  0.0993122535669  0.7506776240301 1.0
A      1  0.3868272755460  0.0995891958757  0.9174868254819 1.0
A      1  0.1093889980311  0.1994986635381  0.0834219914939 1.0
A      1  0.2195456246297  0.1983360159520  0.2497281471032 1.0
A      1  0.1084863669456  0.1987664744659  0.4168363530394 1.0
A      1  0.2185878655577  0.1971665932263  0.5838721935931 1.0
A      1  0.1094084832644  0.1996305076722  0.7506383658208 1.0
A      1  0.2206495095820  0.1995969824090  0.9168116650282 1.0
A      1  0.9430102735584  0.2995858163438  0.0835977009297 1.0
A      1  0.0535420427547  0.2989616858069  0.2499255618602 1.0
A      1  0.9422544300892  0.2990954991988  0.4170347811532 1.0
A      1  0.0538412670758  0.2987773472904  0.5838505565203 1.0
A      1  0.9433820887193  0.2998892747099  0.7506418638377 1.0
A      1  0.0544346915012  0.2997512404487  0.9168379250312 1.0
A      1  0.6099411005832  0.0995753331969  0.0854569460424 1.0
A      1  0.7205585420775  0.0994805027408  0.2507083329572 1.0
A      1  0.6100514281351  0.1006795080613  0.4183258894021 1.0
A      1  0.7212653142042  0.0991992074017  0.5844109569329 1.0
A      1  0.6096161985006  0.0995678120796  0.7515877650847 1.0
A      1  0.7207579538845  0.1001837215581  0.9178169189306 1.0
A      1  0.4427910932734  0.1989987789761  0.0835640504175 1.0
A      1  0.5535929965197  0.1999019628849  0.2514899575417 1.0
A      1  0.4426258927515  0.1976763823179  0.4175449687774 1.0
A      1  0.5541489795768  0.2039271639193  0.5854637095224 1.0
A      1  0.4415791335879  0.1988633836434  0.7511498200482 1.0
A      1  0.5533487956581  0.1982785260524  0.9203503175811 1.0
A      1  0.2755807682793  0.2992905685484  0.0818283351540 1.0
A      1  0.3852556074614  0.2964360004517  0.2464369276236 1.0
A      1  0.2737611072349  0.2974567757583  0.4160013390666 1.0
A      1  0.3817589681461  0.2937185492351  0.5837466695862 1.0
A      1  0.2757791652323  0.2994447491512  0.7507758150829 1.0
A      1  0.3877311092660  0.2999640075793  0.9163824763594 1.0
A      1  0.1093142980377  0.3994412224225  0.0828419151625 1.0
A      1  0.2196837666111  0.3977502162171  0.2485159308052 1.0
A      1  0.1075151885880  0.3980499407597  0.4166016865654 1.0
A      1  0.2194707759122  0.3975048622613  0.5834732885690 1.0
A      1  0.1102619414608  0.3999671751994  0.7502377906917 1.0
A      1  0.2212012760313  0.4002631033061  0.9157084114617 1.0
A      1  0.9434160901341  0.4996545981823  0.0835036267700 1.0
A      1  0.0547959092933  0.4992095651597  0.2502013788829 1.0
A      1  0.9435871070202  0.4995694088900  0.4171359181978 1.0
A      1  0.0547997347735  0.4990568408928  0.5835214881254 1.0
A      1  0.9436713236818  0.5001880398152  0.7503485014838 1.0
A      1  0.0544787994712  0.4998308060375  0.9168378054754 1.0
A      1  0.7764571312406  0.1996873616211  0.0842815257763 1.0
A      1  0.8874819617769  0.1995168177905  0.2499716097798 1.0
A      1  0.7770662265042  0.1985182420044  0.4151764547971 1.0
A      1  0.8891489050085  0.1982898017095  0.5838458272256 1.0
A      1  0.7760960067574  0.2008604801373  0.7505379355513 1.0
A      1  0.8874356362714  0.1999156936965  0.9171964986756 1.0
A      1  0.6098198499704  0.2993274967492  0.0851118102105 1.0
A      1  0.7207121163710  0.2997099517867  0.2508125827820 1.0
A      1  0.6094112351884  0.3010610799289  0.4178943170109 1.0
A      1  0.7256430028999  0.2946001863857  0.5786870180502 1.0
A      1  0.6061667533091  0.2949146438793  0.7582864904853 1.0
A      1  0.7210846740359  0.3001234162955  0.9188070903469 1.0
A      1  0.4426512276390  0.3991007853658  0.0839741513692 1.0
A      1  0.5544755426523  0.3998632162732  0.2498833837192 1.0
A      1  0.4432538429967  0.4017687201878  0.7487696229622 1.0
A      1  0.5537254921153  0.3996350344141  0.9208792760996 1.0
A      1  0.2755238826734  0.4993062089809  0.0831549752293 1.0
A      1  0.3855292978423  0.4980539233484  0.2478566262598 1.0
A      1  0.2703069334011  0.4964977065657  0.4135292748055 1.0
A      1  0.2802238550020  0.5003066785177  0.7468912853092 1.0
A      1  0.3877898571756  0.4998638312806  0.9185364079043 1.0
A      1  0.1096134339825  0.5996258455352  0.0836874600999 1.0
A      1  0.2205953625405  0.5995574482882  0.2502377941098 1.0
A      1  0.1092643018432  0.5998282694207  0.4170356334819 1.0
A      1  0.2224254544436  0.5954466325075  0.5827488775793 1.0
A      1  0.1107385004740  0.5991695708646  0.7502415835577 1.0
A      1  0.2212061308904  0.5992404151286  0.9174869687179 1.0
A      1  0.9435858222185  0.7000634890900  0.0835636940202 1.0
A      1  0.0551367784535  0.6997869430933  0.2502957003725 1.0
A      1  0.9452109318086  0.7008987611129  0.4169141016461 1.0
A      1  0.0565504904414  0.6994720499435  0.5843036249808 1.0
A      1  0.9439796564826  0.7001807290688  0.7509749015413 1.0
A      1  0.0548463319249  0.6996516577325  0.9172595990228 1.0
A      1  0.7767113257691  0.3995960402924  0.0851644851381 1.0
A      1  0.8879651425196  0.3997793034911  0.2503338941273 1.0
A      1  0.7770384959699  0.3998138118561  0.4156784611033 1.0
A      1  0.8887118352989  0.3994257522521  0.5840073866268 1.0
A      1  0.7779102725330  0.4004875750003  0.7524636684966 1.0
A      1  0.8882572880090  0.3998073778153  0.9177400565575 1.0
A      1  0.6100717994831  0.5000717172518  0.0861944228840 1.0
A      1  0.7212329806807  0.5006175122036  0.2511116761035 1.0
A      1  0.7300499968840  0.5065845333225  0.5772117846891 1.0
A      1  0.6080117055786  0.5058800616302  0.7647782129916 1.0
A      1  0.7224905830954  0.5001078846314  0.9206956248268 1.0
A      1  0.4425207385392  0.5997413425090  0.0862541222201 1.0
A      1  0.5531831967417  0.5996946620595  0.2530140191454 1.0
A      1  0.4446728800803  0.6043964054983  0.7600822527772 1.0
A      1  0.5541802421913  0.6027175719881  0.9246072698815 1.0
A      1  0.2760354245771  0.6996538981616  0.0854211297495 1.0
A      1  0.3877939685227  0.6983350676159  0.2529778972984 1.0
A      1  0.2776762112109  0.6986841293963  0.4189972210718 1.0
A      1  0.3821189598243  0.6949915273600  0.5936284002070 1.0
A      1  0.2747267890324  0.7001846243909  0.7545639967301 1.0
A      1  0.3866404665955  0.7015348205771  0.9213188911531 1.0
A      1  0.1097954495312  0.7998349032295  0.0844483162894 1.0
A      1  0.2216096259533  0.7993817923373  0.2515180916981 1.0
A      1  0.1108260047022  0.7996500830748  0.4174821711692 1.0
A      1  0.2210201666360  0.7986910362591  0.5849601592493 1.0
A      1  0.1096797164350  0.8001201164765  0.7513094004082 1.0
A      1  0.2203823512054  0.8002964790519  0.9187220539009 1.0
A      1  0.9435310372018  0.9001688022586  0.0841036601577 1.0
A      1  0.0547734960533  0.8995675001266  0.2507613771718 1.0
A      1  0.9445873714359  0.9005341358773  0.4173456656729 1.0
A      1  0.0550578555881  0.8992755991812  0.5842145873069 1.0
A      1  0.9436438847398  0.9004023512461  0.7510093329508 1.0
A      1  0.0542338606292  0.8999037476308  0.9176680422654 1.0
A      1  0.7774748485214  0.5999344358113  0.0842460282210 1.0
A      1  0.8897035569821  0.5996907373981  0.2495348056216 1.0
A      1  0.7811270602963  0.6016153190337  0.4141657987253 1.0
A      1  0.8915753019936  0.6021271732199  0.5837405112618 1.0
A      1  0.7766144147509  0.6003731687648  0.7502593984198 1.0
A      1  0.8881944722804  0.6000408264027  0.9169866509981 1.0
A      1  0.6105072842757  0.7006295926317  0.0867100092878 1.0
A      1  0.7240279640912  0.7003900197677  0.2479381897049 1.0
A      1  0.6202594580031  0.7007468879950  0.4111468588450 1.0
A      1  0.7224796836924  0.7029153794019  0.5836254529357 1.0
A      1  0.6114946837641  0.7036063172623  0.7549912407251 1.0
A      1  0.7218021128969  0.7002081698680  0.9187775495274 1.0
A      1  0.4431347039179  0.7998161698866  0.0859897723820 1.0
A      1  0.5545836855517  0.8003198236532  0.2511275857785 1.0
A      1  0.4398736819488  0.8058888657472  0.4122796960986 1.0
A      1  0.5582915692159  0.8066709756032  0.5915719939976 1.0
A      1  0.4432848442752  0.8012752680709  0.7536673537304 1.0
A      1  0.5542589087972  0.8011475156783  0.9200960900457 1.0
A      1  0.2760499823729  0.8997704600426  0.0842186245594 1.0
A      1  0.3865927654697  0.9009200083979  0.2491151513393 1.0
A      1  0.2752800344376  0.9003740106864  0.4176562057014 1.0
A      1  0.3882685307602  0.8973357113639  0.5842066509920 1.0
A      1  0.2765064185225  0.8996114964978  0.7513190917481 1.0
A      1  0.3871730464669  0.9004651614228  0.9187437183994 1.0
A      1  0.1096928517199  0.9998150832922  0.0839278271579 1.0
A      1  0.2203123821896  0.9994541512061  0.2505626410233 1.0
A      1  0.1097782994625  0.9997656395233  0.4174093219486 1.0
A      1  0.2211359270293  0.9982841699150  0.5844139856248 1.0
A      1  0.1098188853000  0.9997726217315  0.7508909076949 1.0
A      1  0.2205133949984  0.9998333457087  0.9174652570840 1.0
A      1  0.7773989486378  0.8007411366950  0.0838710518609 1.0
A      1  0.8889795032205  0.8000886703530  0.2503141273079 1.0
A      1  0.7800610179251  0.8021365407741  0.4172853315456 1.0
A      1  0.8894369452022  0.8004483456917  0.5843753130792 1.0
A      1  0.7776900419206  0.8008899434025  0.7513492529424 1.0
A      1  0.8882791333165  0.8000487456131  0.9174592254508 1.0
A      1  0.6102268679346  0.9003399929376  0.0853349306365 1.0
A      1  0.7211264863923  0.8997284683895  0.2513976897569 1.0
A      1  0.6101076394765  0.8997402072404  0.4192903641998 1.0
A      1  0.7229785981035  0.9015936175562  0.5850573670464 1.0
A      1  0.6113347866267  0.9025372456293  0.7541921914524 1.0
A      1  0.7215352842894  0.9002598807859  0.9184970955594 1.0
A      1  0.4432938061560  0.9998875745624  0.0843582378306 1.0
A      1  0.5540793176834  0.9997500126676  0.2520556246683 1.0
A      1  0.4430276840920  0.0007368010799  0.4177569612137 1.0
A      1  0.5543839106824  0.0026642584758  0.5848913666715 1.0
A      1  0.4430893448144  0.9995143665859  0.7513625273353 1.0
A      1  0.5540146135574  0.0001596366709  0.9189142776957 1.0
A      1  0.7767227540606  0.0001310913410  0.0844729475834 1.0
A      1  0.8875202676223  0.9995875660216  0.2507084011327 1.0
A      1  0.7767633986030  0.0001556873746  0.4174707640612 1.0
A      1  0.8884468686689  0.9996371816780  0.5841297856402 1.0
A      1  0.7774042472084  0.0009759447510  0.7515454101532 1.0
A      1  0.8877223432840  0.0000050234196  0.9177344668179 1.0
END
