TITL AB-20764-5019-353 0.0000000000 4458.8459578500 -1495.6677381946 0 0  183 (P1) n - 1
REM
REM Run started: at Fri Oct 6 15:32:38 BST 2023 in /home/michal/install/eddp/airss/examples/1.11
REM pp3 from code version ## 0.9.3 July 2022 commit b0220bf5cbf550a3b7
REM
REM
REM
REM Total runtime: s
REM
REM
REM ./AB.cell (a186c3e4acc5915692489c59fabd1559)
REM ## AIRSS Version 0.9.3 July 2022 commit b0220bf5cbf550a3b7
REM compiler GCC version 11.4.0
REM options -cpp -imultiarch x86_64-linux-gnu -mtune=generic -march=x86-64 -g -Og -fpre-include=/usr/include/finclude/math-vector-fortran.h
REM cmdline: airss.pl -pp3 max 100 -seed AB 
REM seed -456959974 -1454299157 856828289 -1178096181 -1902493709 -177255833 1354033423 1733092711
REM
REM AB.pp (46f9ffe235eb1beff4ce53cde2d82919)
REM 
CELL 1.54180   16.99142   16.35000   16.05000   90.00000   90.00000   90.00000
LATT -1
SFAC A  B  
A      1  0.9434652830015  0.1009428127908  0.0830437796384 1.0
A      1  0.0547010825025  0.1005234956384  0.2502441646754 1.0
A      1  0.4517203102918  0.6086329648804  0.4429340204350 1.0
A      1  0.4334353914579  0.4006819727790  0.4205105967308 1.0
A      1  0.6220579922148  0.4987049782542  0.4137015075219 1.0
A      1  0.3775377160472  0.5037968589935  0.5890786099224 1.0
A      1  0.5512018081154  0.4448180105311  0.5864381651645 1.0
B      2  0.6082518345243  0.6003451386689  0.5408675229160 1.0
B      2  0.5132890420954  0.3119457381377  0.5185286603335 1.0
B      2  0.5089758339537  0.6137437518053  0.6114971598435 1.0
B      2  0.4957087004844  0.5096286315333  0.3331587204228 1.0
A      1  0.9434070799761  0.1005675673061  0.4167614314588 1.0
A      1  0.0526455374319  0.1009339264427  0.5838276918771 1.0
A      1  0.9416328729053  0.1009818031923  0.7498033760612 1.0
A      1  0.0535225657546  0.1007703135403  0.9169927346514 1.0
A      1  0.2766154272586  0.1008705805943  0.0842899290414 1.0
A      1  0.3877626702626  0.1008906282006  0.2510367807679 1.0
A      1  0.2766412358153  0.1010805079834  0.4176400175797 1.0
A      1  0.3862025919674  0.1001215710357  0.5843213399205 1.0
A      1  0.2755785739138  0.1010320036709  0.7511202446661 1.0
A      1  0.3871204466754  0.1005633502725  0.9176489525435 1.0
A      1  0.1097081899901  0.2008064232143  0.0838032198356 1.0
A      1  0.2209672890043  0.2002789523634  0.2505965053730 1.0
A      1  0.1093363452408  0.2003309866524  0.4169795445344 1.0
A      1  0.2182088742183  0.1999067795297  0.5846620851808 1.0
A      1  0.1081946357710  0.2005747255234  0.7508760443518 1.0
A      1  0.2200839276583  0.2003181247925  0.9179843836971 1.0
A      1  0.9428051555338  0.3004860365109  0.0827313491513 1.0
A      1  0.0541008475983  0.3000777851977  0.2500452047323 1.0
A      1  0.9443880239774  0.2999937158007  0.4162135642192 1.0
A      1  0.0529311206225  0.3002233122735  0.5836902473251 1.0
A      1  0.9416488041730  0.3002948471424  0.7499227648916 1.0
A      1  0.0532937602982  0.3003911321686  0.9169319342436 1.0
A      1  0.6099451799758  0.1007084224531  0.0825959819837 1.0
A      1  0.7213210776216  0.1012074672617  0.2495121734691 1.0
A      1  0.6102998074323  0.1005411755560  0.4171786111861 1.0
A      1  0.7221509285743  0.0983717020644  0.5831694709300 1.0
A      1  0.6104519828958  0.0971835024096  0.7536704292106 1.0
A      1  0.7210334678883  0.1006921587062  0.9167716001534 1.0
A      1  0.4429764086119  0.2008810336115  0.0833692311660 1.0
A      1  0.5543433173958  0.1995136512528  0.2482061783590 1.0
A      1  0.4440022659024  0.2011697054159  0.4185974030911 1.0
A      1  0.5562231539407  0.1855000976601  0.5907521728716 1.0
A      1  0.4416804198038  0.2005849772701  0.7515632107575 1.0
A      1  0.5538073510906  0.2008400630284  0.9155049102262 1.0
A      1  0.2760735600197  0.3010487123211  0.0844199765456 1.0
A      1  0.3876722638512  0.3007232116763  0.2512270323660 1.0
A      1  0.2736512090914  0.2999580720812  0.4179794757635 1.0
A      1  0.3799044050554  0.3004771141319  0.5893001997715 1.0
A      1  0.2733003918840  0.3010420834955  0.7526858394638 1.0
A      1  0.3864390558712  0.3006179221522  0.9170439059223 1.0
A      1  0.1081867414248  0.4005325102548  0.0836620214565 1.0
A      1  0.2181108628684  0.3994466644100  0.2507200326055 1.0
A      1  0.1090809862633  0.4012688285252  0.4171044868633 1.0
A      1  0.2170089047957  0.4011511222815  0.5842691919833 1.0
A      1  0.1071442466276  0.4006128845545  0.7507223340246 1.0
A      1  0.2189973273930  0.4000905032739  0.9177458986024 1.0
A      1  0.9426501098699  0.5011465018007  0.0827473470678 1.0
A      1  0.0543286610966  0.5011878361152  0.2500726185081 1.0
A      1  0.9442440614102  0.5012348847378  0.4165095710476 1.0
A      1  0.0530623503260  0.5010593573011  0.5838659944771 1.0
A      1  0.9418148076096  0.5006728849753  0.7499109363966 1.0
A      1  0.0535821585020  0.5009659320553  0.9170957387754 1.0
A      1  0.7770024751729  0.2003662549805  0.0816495932590 1.0
A      1  0.8884938232732  0.2003554891993  0.2494392956380 1.0
A      1  0.7778409204018  0.1998480262102  0.4160032849526 1.0
A      1  0.8854918614314  0.2013552585029  0.5830088580776 1.0
A      1  0.7738351476008  0.2011910379888  0.7481257668955 1.0
A      1  0.8867459354271  0.2007836758359  0.9156917312391 1.0
A      1  0.6106056018434  0.2996512665341  0.0803212209661 1.0
A      1  0.7243441811998  0.3005574687958  0.2456744579913 1.0
A      1  0.6160677853308  0.3006385907814  0.4062218400338 1.0
A      1  0.7138013435694  0.3029199150390  0.5797935586143 1.0
A      1  0.6064041150242  0.3033998920458  0.7457383000540 1.0
A      1  0.7200342208063  0.3009319313473  0.9142479578964 1.0
A      1  0.4427367419012  0.4002896614820  0.0820453409720 1.0
A      1  0.5568096001597  0.3976859891872  0.2433513141426 1.0
A      1  0.4412900096043  0.4019538187117  0.7506187519584 1.0
A      1  0.5534011104648  0.4008113212916  0.9159506464470 1.0
A      1  0.2727301323256  0.5007627489320  0.0811040447616 1.0
A      1  0.3775844467940  0.4989607547233  0.2421732752016 1.0
A      1  0.2753914376491  0.5036463557675  0.4168957657446 1.0
A      1  0.2721827664442  0.5009028412577  0.7533357137538 1.0
A      1  0.3858312213524  0.5004520565157  0.9183389491890 1.0
A      1  0.1084959091928  0.6014627555201  0.0838380043265 1.0
A      1  0.2188105855206  0.6021504993952  0.2506970193623 1.0
A      1  0.1093697277619  0.6018192037370  0.4173607420594 1.0
A      1  0.2167002485756  0.6028481929322  0.5852873527486 1.0
A      1  0.1072087284744  0.6012179717492  0.7511603713926 1.0
A      1  0.2193200093431  0.6017303223459  0.9182428897958 1.0
A      1  0.9431796753259  0.7017128581858  0.0832460471204 1.0
A      1  0.0546164207246  0.7019154812223  0.2503293061120 1.0
A      1  0.9443568459992  0.7020923882458  0.4163777095409 1.0
A      1  0.0534364143159  0.7023817753491  0.5839874976377 1.0
A      1  0.9426770786264  0.7016508616906  0.7503320347739 1.0
A      1  0.0537486636499  0.7016648360293  0.9174017713143 1.0
A      1  0.7770435197010  0.4006720586674  0.0812191114807 1.0
A      1  0.8895228406085  0.4008933372226  0.2487214886958 1.0
A      1  0.7815815643589  0.3994698177672  0.4149394645421 1.0
A      1  0.8880336910221  0.3996434544500  0.5831210182432 1.0
A      1  0.7754944079956  0.4003516351735  0.7490607073738 1.0
A      1  0.8874558924352  0.4007304863023  0.9158665380064 1.0
A      1  0.6106750203661  0.5006955469984  0.0806580881384 1.0
A      1  0.7240509193103  0.5009644794487  0.2469307518398 1.0
A      1  0.7279667899908  0.5022217416465  0.5838680625676 1.0
A      1  0.6116836367110  0.5045641972743  0.7561234719964 1.0
A      1  0.7221555438164  0.5012298776897  0.9170036254545 1.0
A      1  0.4431301766226  0.6006649214377  0.0835787491969 1.0
A      1  0.5630082160545  0.6088762847247  0.2401131563459 1.0
A      1  0.4392152178524  0.6006467331989  0.7556748136345 1.0
A      1  0.5532243120046  0.6019266687286  0.9180071025834 1.0
A      1  0.2769217854452  0.7006093481471  0.0860200188748 1.0
A      1  0.3909384940263  0.6968030491400  0.2555099330866 1.0
A      1  0.2778348525664  0.7013149209628  0.4193366358777 1.0
A      1  0.3802698390578  0.7055974975217  0.5914990049123 1.0
A      1  0.2730097255530  0.7014082837580  0.7538222504008 1.0
A      1  0.3861258225768  0.7016298942731  0.9192277773504 1.0
A      1  0.1102457816945  0.8011666235715  0.0845013890681 1.0
A      1  0.2225715905782  0.8005882081709  0.2516748556386 1.0
A      1  0.1105509416589  0.8014114733282  0.4171502489153 1.0
A      1  0.2181403581915  0.8030135409795  0.5848554889453 1.0
A      1  0.1085626198357  0.8017272672464  0.7512376415046 1.0
A      1  0.2201444757536  0.8016345354443  0.9188113262110 1.0
A      1  0.9439237328829  0.9015277460008  0.0833386971083 1.0
A      1  0.0554736023567  0.9013046193911  0.2504568057535 1.0
A      1  0.9441201841990  0.9015160008857  0.4165695273267 1.0
A      1  0.0534271133069  0.9018682056191  0.5838183256713 1.0
A      1  0.9426812210536  0.9012883546454  0.7502729591988 1.0
A      1  0.0538996369780  0.9013032520955  0.9173834246894 1.0
A      1  0.7768983164796  0.6019764877820  0.0820250744773 1.0
A      1  0.8894887346148  0.6013911559730  0.2492058431531 1.0
A      1  0.7802052520701  0.6024298285342  0.4154671948163 1.0
A      1  0.8898509148610  0.6020376897911  0.5831501212112 1.0
A      1  0.7776164708155  0.6016382973149  0.7500630471983 1.0
A      1  0.8879498824639  0.6014237801340  0.9165241186489 1.0
A      1  0.6120697918840  0.7041991593765  0.0790955988168 1.0
A      1  0.7257211371656  0.7033156147161  0.2477607985003 1.0
A      1  0.6138975717953  0.7020403523426  0.4113571845642 1.0
A      1  0.7234179486893  0.7014067436132  0.5827155648565 1.0
A      1  0.6078067162223  0.6983773200425  0.7466144976586 1.0
A      1  0.7207238804345  0.7011375264621  0.9143698814605 1.0
A      1  0.4434290984693  0.8003013985803  0.0850852386338 1.0
A      1  0.5554448937105  0.8035729960929  0.2490312079262 1.0
A      1  0.4436273385402  0.8030019354168  0.4176767983888 1.0
A      1  0.5527090924777  0.7906180566856  0.5813177269536 1.0
A      1  0.4422243470650  0.8012758917799  0.7521778910793 1.0
A      1  0.5535527874190  0.8010032968493  0.9158270593197 1.0
A      1  0.2767304285607  0.9008989108838  0.0846857154558 1.0
A      1  0.3880346090580  0.9002905569688  0.2510490345148 1.0
A      1  0.2767360294766  0.9014506290837  0.4180067181007 1.0
A      1  0.3866254075091  0.9012117721515  0.5846012996107 1.0
A      1  0.2757638932163  0.9011277218705  0.7513438730942 1.0
A      1  0.3869690111723  0.9010370074739  0.9182116166247 1.0
A      1  0.1102589001923  0.0011204434374  0.0838682685790 1.0
A      1  0.2215632667266  0.0007103967383  0.2509593727585 1.0
A      1  0.1102321129330  0.0011679273801  0.4173578688755 1.0
A      1  0.2199217040388  0.0013385675636  0.5844140994915 1.0
A      1  0.1090156765312  0.0012553559951  0.7506681384243 1.0
A      1  0.2204568786782  0.0009932521723  0.9176181504387 1.0
A      1  0.7776773314944  0.8023624571926  0.0819508287761 1.0
A      1  0.8894171808597  0.8022564052483  0.2495632791337 1.0
A      1  0.7784151582744  0.8019815542280  0.4159411875906 1.0
A      1  0.8880282229245  0.8016870677626  0.5833037785985 1.0
A      1  0.7761626421717  0.8006957203362  0.7496654312700 1.0
A      1  0.8873870426688  0.8013660037381  0.9163618457237 1.0
A      1  0.6102083689338  0.9019341364876  0.0829340716578 1.0
A      1  0.7218891808276  0.9018075482418  0.2494007459151 1.0
A      1  0.6106852771375  0.9004350840965  0.4165041441630 1.0
A      1  0.7206153764382  0.8991427582296  0.5829840845904 1.0
A      1  0.6093247017466  0.8979215563413  0.7494572573101 1.0
A      1  0.7203852194166  0.9010225658456  0.9161722795475 1.0
A      1  0.4431507192421  0.0007876222294  0.0845132602183 1.0
A      1  0.5546702551475  0.0013363572330  0.2503853437001 1.0
A      1  0.4435709392929  0.0015768110492  0.4174824866762 1.0
A      1  0.5539289335079  0.9928619799783  0.5838379400062 1.0
A      1  0.4427827911600  0.0008218732502  0.7508434432844 1.0
A      1  0.5534946747026  0.0001044444785  0.9174478567876 1.0
A      1  0.7769606898793  0.0012323975292  0.0830792167716 1.0
A      1  0.8882421761000  0.0012260601997  0.2498109334975 1.0
A      1  0.7769564039544  0.0006207394279  0.4161774527447 1.0
A      1  0.8872613412763  0.0006019003198  0.5831742397502 1.0
A      1  0.7762668137254  0.9999346767052  0.7499460313953 1.0
A      1  0.8872494181678  0.0008907329556  0.9166868539029 1.0
END
