TITL AB-20764-5019-150 0.0000000000 4458.8459578500 -1496.9606968694 0 0  183 (P1) n - 1
REM
REM Run started: at Fri Oct 6 15:24:44 BST 2023 in /home/michal/install/eddp/airss/examples/1.11
REM pp3 from code version ## 0.9.3 July 2022 commit b0220bf5cbf550a3b7
REM
REM
REM
REM Total runtime: s
REM
REM
REM ./AB.cell (a186c3e4acc5915692489c59fabd1559)
REM ## AIRSS Version 0.9.3 July 2022 commit b0220bf5cbf550a3b7
REM compiler GCC version 11.4.0
REM options -cpp -imultiarch x86_64-linux-gnu -mtune=generic -march=x86-64 -g -Og -fpre-include=/usr/include/finclude/math-vector-fortran.h
REM cmdline: airss.pl -pp3 max 100 -seed AB 
REM seed 1187185228 -2109819426 1367349381 -438851612 -1735870999 -620601758 -1634698331 -1879951281
REM
REM AB.pp (46f9ffe235eb1beff4ce53cde2d82919)
REM 
CELL 1.54180   16.99142   16.35000   16.05000   90.00000   90.00000   90.00000
LATT -1
SFAC A  B  
A      1  0.9445197262386  0.0994658994042  0.0830178084417 1.0
A      1  0.0550379175189  0.0992548428013  0.2497448010240 1.0
A      1  0.4369016127141  0.3966403517318  0.4115091434086 1.0
A      1  0.3954363716374  0.4973303993938  0.5817745722850 1.0
A      1  0.6011650354095  0.4722304246674  0.4552802310451 1.0
A      1  0.5598277057243  0.6056206763572  0.5913773986225 1.0
A      1  0.4612194059735  0.5977480764680  0.4225197451307 1.0
B      2  0.6506425723816  0.5764018347044  0.3511372800054 1.0
B      2  0.5303224049894  0.3485319708421  0.5382235442964 1.0
B      2  0.5503576511334  0.4429583443244  0.6205594115928 1.0
B      2  0.3386076089356  0.5988237438076  0.3363846636973 1.0
A      1  0.9440530603445  0.0997819119503  0.4168444104472 1.0
A      1  0.0544100845392  0.1001040498118  0.5837147296378 1.0
A      1  0.9439852863002  0.1008701052203  0.7499763077223 1.0
A      1  0.0552904553554  0.1000539846522  0.9165681261137 1.0
A      1  0.2777292384153  0.0996617990876  0.0829075366088 1.0
A      1  0.3881893347397  0.0991625506328  0.2493631477375 1.0
A      1  0.2769789760829  0.0991089578645  0.4162304543661 1.0
A      1  0.3877407862566  0.0989526710172  0.5829725482614 1.0
A      1  0.2776371840754  0.0999244646364  0.7499956904797 1.0
A      1  0.3887596172749  0.1001505971008  0.9156797596109 1.0
A      1  0.1111637118611  0.1994536279940  0.0830021247346 1.0
A      1  0.2213998670956  0.1989822777151  0.2492067845117 1.0
A      1  0.1096452695131  0.1988083698642  0.4166366161769 1.0
A      1  0.2210478378615  0.1987409698077  0.5835587995104 1.0
A      1  0.1110398951412  0.2000739194793  0.7501564490888 1.0
A      1  0.2221600571236  0.1997769167420  0.9165494335523 1.0
A      1  0.9448764927124  0.2990170759568  0.0830292465697 1.0
A      1  0.0556611997323  0.2988375210318  0.2498041718228 1.0
A      1  0.9431577092688  0.2995042196702  0.4166225597775 1.0
A      1  0.0545911452763  0.2993796207553  0.5835919167246 1.0
A      1  0.9445818881331  0.3001457480972  0.7499864302604 1.0
A      1  0.0556981724861  0.2996709748398  0.9166695435527 1.0
A      1  0.6115577849750  0.0999469405976  0.0819402497604 1.0
A      1  0.7219839923936  0.0990753516900  0.2496902237931 1.0
A      1  0.6108757055305  0.0965652030112  0.4157663712083 1.0
A      1  0.7217754965942  0.1010152885353  0.5827057586866 1.0
A      1  0.6112120939624  0.1011050554361  0.7499702492460 1.0
A      1  0.7224119191730  0.1002211970430  0.9160058489719 1.0
A      1  0.4444838292909  0.1989778840907  0.0809730319055 1.0
A      1  0.5547244559410  0.1982032483075  0.2467187245868 1.0
A      1  0.4436274583775  0.1981512137926  0.4161082457574 1.0
A      1  0.5547372519501  0.1963906720950  0.5830122671553 1.0
A      1  0.4443953602008  0.1996861900536  0.7491876269398 1.0
A      1  0.5558649242956  0.2009835240255  0.9150707745389 1.0
A      1  0.2777668103349  0.2998298407358  0.0825143459469 1.0
A      1  0.3887418262593  0.2960975433369  0.2473704282315 1.0
A      1  0.2751172641468  0.2961019175613  0.4162797322912 1.0
A      1  0.3874899615193  0.2984613981837  0.5829421104946 1.0
A      1  0.2781179849990  0.2993224229532  0.7502732206785 1.0
A      1  0.3889824399242  0.2998782659694  0.9147967375430 1.0
A      1  0.1108234151297  0.3995275640714  0.0834102744693 1.0
A      1  0.2219505117179  0.3993834098421  0.2504730091143 1.0
A      1  0.1086938641260  0.3977647527934  0.4169344509995 1.0
A      1  0.2217100219475  0.3974258681702  0.5859920148535 1.0
A      1  0.1111383404420  0.3998431704289  0.7504553615995 1.0
A      1  0.2221670968175  0.3995854448869  0.9157679549295 1.0
A      1  0.9438323057077  0.4994356803021  0.0839418531470 1.0
A      1  0.0545076614308  0.4990322054879  0.2500935193715 1.0
A      1  0.9450273945341  0.4994100364797  0.4174965458934 1.0
A      1  0.0567342714631  0.4994845211841  0.5834887375170 1.0
A      1  0.9451044063563  0.5001094316711  0.7505883073041 1.0
A      1  0.0559001817907  0.4996511568897  0.9166497391889 1.0
A      1  0.7781311080043  0.1989627906638  0.0822911167090 1.0
A      1  0.8891676638391  0.1987065828157  0.2495028641981 1.0
A      1  0.7786095200910  0.1991853560564  0.4163688343847 1.0
A      1  0.8871023862290  0.2010136246027  0.5833491674975 1.0
A      1  0.7765931680121  0.2016318535070  0.7484342862134 1.0
A      1  0.8885860001974  0.2001836301898  0.9160094032968 1.0
A      1  0.6116675682351  0.2999791727174  0.0830876237882 1.0
A      1  0.7235461525090  0.2976037401461  0.2482232323235 1.0
A      1  0.6119831051646  0.2888483882350  0.4108498642557 1.0
A      1  0.7164227406721  0.3044906329116  0.5802736234628 1.0
A      1  0.6097745630199  0.3033654861610  0.7452430893323 1.0
A      1  0.7217567877900  0.2998988892911  0.9152711054003 1.0
A      1  0.4460394996162  0.3975847818852  0.0795600034940 1.0
A      1  0.5586579350460  0.4013067214185  0.2540138733302 1.0
A      1  0.4462659419160  0.4001498789348  0.7474420126920 1.0
A      1  0.5563351777689  0.4002022123188  0.9155222927840 1.0
A      1  0.2764893923917  0.4992571974026  0.0806721795751 1.0
A      1  0.3904248699993  0.4911168191394  0.2402470654112 1.0
A      1  0.2721868941064  0.4924809767100  0.4235487314870 1.0
A      1  0.2791863880807  0.4994669198022  0.7489038881694 1.0
A      1  0.3891620552043  0.4993136598669  0.9146383356992 1.0
A      1  0.1092598747542  0.5996983089387  0.0815598597498 1.0
A      1  0.2169750498858  0.5996222744177  0.2448690791455 1.0
A      1  0.1116395589940  0.5997629271264  0.4163839465910 1.0
A      1  0.2238029039339  0.5990064642663  0.5846480313119 1.0
A      1  0.1116124851401  0.5999282781417  0.7501039854315 1.0
A      1  0.2224710138733  0.5998104101218  0.9153766699193 1.0
A      1  0.9440171100474  0.6999934432982  0.0842045497722 1.0
A      1  0.0541964347552  0.7001745551658  0.2502527112188 1.0
A      1  0.9458054710012  0.7003428156677  0.4179083554946 1.0
A      1  0.0574429410179  0.7001585302571  0.5838700024717 1.0
A      1  0.9457194636419  0.7012329118130  0.7512634210924 1.0
A      1  0.0559996052443  0.7003184012921  0.9169053543582 1.0
A      1  0.7788654034641  0.3978942497684  0.0809893615706 1.0
A      1  0.8902560156468  0.3981071376509  0.2499469216957 1.0
A      1  0.7760134067891  0.4013040492692  0.4154129149230 1.0
A      1  0.8884776733531  0.3999820023461  0.5832602059145 1.0
A      1  0.7788271736119  0.4000880488052  0.7516927484219 1.0
A      1  0.8898348097121  0.3998558923688  0.9166649743433 1.0
A      1  0.6107171624107  0.4997255017477  0.0828514676401 1.0
A      1  0.7266306856333  0.4948453716029  0.2438312554152 1.0
A      1  0.7265383662452  0.5030436314717  0.5916572503065 1.0
A      1  0.6142285261458  0.5034345114484  0.7556569924317 1.0
A      1  0.7237332406228  0.5005888969305  0.9186568038246 1.0
A      1  0.4416518288802  0.6000960435722  0.0787114059936 1.0
A      1  0.5467041487955  0.6019341037165  0.2420311508139 1.0
A      1  0.4452534734833  0.6003323303822  0.7507311191831 1.0
A      1  0.5558222568007  0.6013295758689  0.9178507212763 1.0
A      1  0.2762292989820  0.7002610936735  0.0810964059746 1.0
A      1  0.3892551065092  0.7085758811441  0.2418278274747 1.0
A      1  0.2732538864958  0.7065637761204  0.4229551828257 1.0
A      1  0.3898664278679  0.6989307191785  0.5833652670956 1.0
A      1  0.2781000904554  0.7002661709106  0.7498874942098 1.0
A      1  0.3886211168842  0.7009303137029  0.9153008896871 1.0
A      1  0.1106479869983  0.7999562199403  0.0836379401398 1.0
A      1  0.2211716631291  0.7998963244611  0.2506183784832 1.0
A      1  0.1094599324283  0.8015757453740  0.4173040046695 1.0
A      1  0.2216144355620  0.8015943593981  0.5861204247259 1.0
A      1  0.1111559111635  0.8006221840818  0.7508658319098 1.0
A      1  0.2220454446265  0.8005330555949  0.9163516662060 1.0
A      1  0.9441744505371  0.8997634790663  0.0838903265310 1.0
A      1  0.0547909662713  0.8998093018311  0.2500974623915 1.0
A      1  0.9442572786881  0.9005859116466  0.4170841669979 1.0
A      1  0.0552475021804  0.9006498048355  0.5840626365888 1.0
A      1  0.9447864154550  0.9011802212547  0.7507408293458 1.0
A      1  0.0554433102246  0.9002582032595  0.9171668360126 1.0
A      1  0.7779535453456  0.6004446721324  0.0837976860765 1.0
A      1  0.8885002384668  0.5995017383269  0.2515892207919 1.0
A      1  0.7825535436517  0.6005054794312  0.4233132081151 1.0
A      1  0.8922755486879  0.6009786162251  0.5862133623559 1.0
A      1  0.7801630181275  0.6025687110383  0.7537670228386 1.0
A      1  0.8902639229074  0.6002090964810  0.9180512066624 1.0
A      1  0.6110159999402  0.7008735648891  0.0831575703451 1.0
A      1  0.7203241826295  0.6967457601100  0.2529346237835 1.0
A      1  0.6133643863821  0.7088793291793  0.4235659791559 1.0
A      1  0.7251022056201  0.7024223098065  0.5870800173223 1.0
A      1  0.6129698895115  0.7031791116939  0.7535568501049 1.0
A      1  0.7230630110171  0.7009547916688  0.9185424440021 1.0
A      1  0.4452842519228  0.8019555127007  0.0802310824114 1.0
A      1  0.5563459102475  0.8009173138930  0.2505258811109 1.0
A      1  0.4432253052896  0.7988048578245  0.4158354752346 1.0
A      1  0.5551456864618  0.8028217595606  0.5861035225911 1.0
A      1  0.4445908345217  0.8005008477976  0.7501729975886 1.0
A      1  0.5558175057289  0.8014398857536  0.9167893115712 1.0
A      1  0.2776885748661  0.8997415798693  0.0833378711932 1.0
A      1  0.3885003236301  0.9023431053428  0.2495023961791 1.0
A      1  0.2770111976412  0.9016973826146  0.4167425732684 1.0
A      1  0.3881190056629  0.8994739797354  0.5830830635929 1.0
A      1  0.2778990381482  0.9006987255541  0.7504887270165 1.0
A      1  0.3885752088339  0.9009243645998  0.9159299580685 1.0
A      1  0.1109438073231  0.9997160976302  0.0832637270654 1.0
A      1  0.2212307814813  0.9996626723039  0.2496011247873 1.0
A      1  0.1103703578298  0.0002175977366  0.4168458805134 1.0
A      1  0.2213621542350  0.0001572370902  0.5836309084961 1.0
A      1  0.1109917120157  0.0004800420140  0.7503504816220 1.0
A      1  0.2219287963512  0.0002061834981  0.9168165506764 1.0
A      1  0.7775042260736  0.7998105191134  0.0851155725444 1.0
A      1  0.8880541855564  0.7992489281412  0.2509336115639 1.0
A      1  0.7794686785184  0.8007779149944  0.4177945995527 1.0
A      1  0.8903165613247  0.8008184613136  0.5843977687977 1.0
A      1  0.7791379243507  0.8022322469682  0.7516647064686 1.0
A      1  0.8892559152504  0.8002985067115  0.9178622761778 1.0
A      1  0.6115553254854  0.9005951769291  0.0834015049214 1.0
A      1  0.7221794841492  0.8991246009903  0.2508924019535 1.0
A      1  0.6109113144949  0.9017297197349  0.4171884050020 1.0
A      1  0.7224945358473  0.9009676729171  0.5838145221709 1.0
A      1  0.6118645441881  0.9017913095634  0.7509541442637 1.0
A      1  0.7225588314285  0.9006003056204  0.9174727057787 1.0
A      1  0.4445147647577  0.0004138024539  0.0824543039782 1.0
A      1  0.5553487945864  0.9997046074491  0.2490276841611 1.0
A      1  0.4439697436037  0.9991589365108  0.4166633716622 1.0
A      1  0.5551170820503  0.9998200995792  0.5838334887848 1.0
A      1  0.4445896927732  0.0001518566072  0.7495285671763 1.0
A      1  0.5554814224728  0.0008360650186  0.9164167014380 1.0
A      1  0.7779238243983  0.9996915133145  0.0835828751692 1.0
A      1  0.8885320859857  0.9993879529709  0.2501278022682 1.0
A      1  0.7780531576586  0.9999464360765  0.4168064847224 1.0
A      1  0.8885003944663  0.0006497761222  0.5836549385710 1.0
A      1  0.7779218803832  0.0014742856936  0.7500067019235 1.0
A      1  0.8888707459062  0.0002190329484  0.9168661083848 1.0
END
