TITL AB-20764-5019-410 0.0000000000 4458.8459578500 -1499.3016778679 0 0  183 (P2) n - 1
REM
REM Run started: at Fri Oct 6 15:34:44 BST 2023 in /home/michal/install/eddp/airss/examples/1.11
REM pp3 from code version ## 0.9.3 July 2022 commit b0220bf5cbf550a3b7
REM
REM
REM
REM Total runtime: s
REM
REM
REM ./AB.cell (a186c3e4acc5915692489c59fabd1559)
REM ## AIRSS Version 0.9.3 July 2022 commit b0220bf5cbf550a3b7
REM compiler GCC version 11.4.0
REM options -cpp -imultiarch x86_64-linux-gnu -mtune=generic -march=x86-64 -g -Og -fpre-include=/usr/include/finclude/math-vector-fortran.h
REM cmdline: airss.pl -pp3 max 100 -seed AB 
REM seed 790393781 2050303667 -990226463 936033410 -2045400046 1792948424 -996904700 -925690802
REM
REM AB.pp (46f9ffe235eb1beff4ce53cde2d82919)
REM 
CELL 1.54180   16.99142   16.35000   16.05000   90.00000   90.00000   90.00000
LATT -1
SFAC A  B  
A      1  0.9437039879096  0.1000283314691  0.0820906279393 1.0
A      1  0.0547861824419  0.1002448717998  0.2486681852393 1.0
A      1  0.6132143704985  0.5000690720608  0.4080116323720 1.0
A      1  0.4429534594737  0.4031681405472  0.4188647290112 1.0
A      1  0.4470624079667  0.6005394432544  0.4216603612865 1.0
A      1  0.5326683341610  0.5001548714055  0.5821310327279 1.0
A      1  0.3602373787532  0.5001542189095  0.5821309100211 1.0
B      2  0.6197408731405  0.3873172691078  0.6338641394903 1.0
B      2  0.5303792124219  0.3472673981010  0.5474402407782 1.0
B      2  0.5303807115178  0.6530421871108  0.6168214226991 1.0
B      2  0.6197424571719  0.6129909262924  0.5303973490441 1.0
A      1  0.9443178788811  0.1000021601359  0.4150231738783 1.0
A      1  0.0551121281754  0.0992614777463  0.5822100436438 1.0
A      1  0.9441183686733  0.0995068295659  0.7491927228892 1.0
A      1  0.0547544178557  0.0997431228815  0.9155858842201 1.0
A      1  0.2765611022508  0.1001237810944  0.0824409187344 1.0
A      1  0.3877478475770  0.1012276064068  0.2495486815056 1.0
A      1  0.2770488841101  0.1011449228843  0.4156760003361 1.0
A      1  0.3879566648342  0.1003341109165  0.5825270169457 1.0
A      1  0.2766085207052  0.0998188285315  0.7490499883014 1.0
A      1  0.3873169528713  0.0993544977981  0.9159314063431 1.0
A      1  0.1101441542789  0.2001339460032  0.0821709327459 1.0
A      1  0.2211146468283  0.2005733592235  0.2490677405604 1.0
A      1  0.1099335856341  0.2005464902872  0.4155718519165 1.0
A      1  0.2202712278371  0.1988313888383  0.5824590224205 1.0
A      1  0.1098672458179  0.2000364477470  0.7489568529244 1.0
A      1  0.2211773184704  0.1998066773953  0.9155377640741 1.0
A      1  0.9432385240452  0.2999654637328  0.0819887776195 1.0
A      1  0.0542075750228  0.2999109040153  0.2484794352354 1.0
A      1  0.9425095821006  0.2998460953386  0.4151054793887 1.0
A      1  0.0510142200657  0.2979286696907  0.5822401941046 1.0
A      1  0.9419896105974  0.2991019794494  0.7491382179552 1.0
A      1  0.0539509746552  0.2993816724778  0.9158278240420 1.0
A      1  0.6099773103527  0.0998422887742  0.0830518100521 1.0
A      1  0.7209236694812  0.1001583016102  0.2486800575737 1.0
A      1  0.6103238511325  0.1016551505162  0.4160255345133 1.0
A      1  0.7220397992969  0.0982128613885  0.5823033867553 1.0
A      1  0.6103355085797  0.0964665519946  0.7505236817324 1.0
A      1  0.7208957586954  0.0996661701339  0.9162382879428 1.0
A      1  0.4426878506324  0.2004643555674  0.0833422034339 1.0
A      1  0.5542911280286  0.2007614094305  0.2496354069399 1.0
A      1  0.4442135485070  0.2023663630828  0.4176189938950 1.0
A      1  0.5566240900594  0.1968712800575  0.5861417021956 1.0
A      1  0.4425597263408  0.1989046967271  0.7496292575176 1.0
A      1  0.5532696696971  0.1976239335646  0.9189696775754 1.0
A      1  0.2767226059942  0.2999791451768  0.0823334681816 1.0
A      1  0.3875382050956  0.3012897811513  0.2504850256589 1.0
A      1  0.2757872227854  0.3015164372347  0.4159370821289 1.0
A      1  0.3846068140382  0.3005265741502  0.5828357719048 1.0
A      1  0.2761837654276  0.3007932094976  0.7490747259558 1.0
A      1  0.3879173381727  0.3001602566958  0.9145731222524 1.0
A      1  0.1094853175154  0.4001172598970  0.0822260374066 1.0
A      1  0.2203432144460  0.4001719657834  0.2478571614317 1.0
A      1  0.1070910164656  0.4002869416993  0.4144699406833 1.0
A      1  0.2109262053782  0.3955959153527  0.5823115876028 1.0
A      1  0.1070133661305  0.3994408500885  0.7499401989654 1.0
A      1  0.2201695861410  0.3992676220014  0.9167488449849 1.0
A      1  0.9428766928901  0.5001545184741  0.0821312504000 1.0
A      1  0.0538578351381  0.5004654380205  0.2483244236132 1.0
A      1  0.9413453726898  0.5009557775739  0.4151749148883 1.0
A      1  0.0508064521348  0.5001544971009  0.5821311787387 1.0
A      1  0.9413455635200  0.4993532740258  0.7490875749538 1.0
A      1  0.0538579626117  0.4998435432711  0.9159379300405 1.0
A      1  0.7767916611255  0.1996750124862  0.0827597377491 1.0
A      1  0.8880922270243  0.1999936819458  0.2482503003851 1.0
A      1  0.7778114624680  0.1989889469713  0.4136253465506 1.0
A      1  0.8889736048424  0.1975987136419  0.5819708097529 1.0
A      1  0.7771076322513  0.1980515553179  0.7493050531983 1.0
A      1  0.8877789170664  0.1993423971999  0.9158646179922 1.0
A      1  0.6099139306865  0.2999187226785  0.0830211093650 1.0
A      1  0.7212604315122  0.3004588900241  0.2488067505021 1.0
A      1  0.6115923762851  0.3009190759740  0.4156235414200 1.0
A      1  0.7265252776207  0.2939245977945  0.5789535180614 1.0
A      1  0.6098686378023  0.2922729846441  0.7575752393426 1.0
A      1  0.7218080133661  0.2993345179412  0.9176440676386 1.0
A      1  0.4426596664436  0.4003144939875  0.0825592809760 1.0
A      1  0.5537815880936  0.4000849866601  0.2482295905428 1.0
A      1  0.4470627080851  0.3997693880543  0.7426013745498 1.0
A      1  0.5539793977291  0.3990953796687  0.9170484569372 1.0
A      1  0.2766487143111  0.5001544709674  0.0821310220803 1.0
A      1  0.3877709904829  0.5012564042104  0.2504502939417 1.0
A      1  0.2719933265108  0.5009743226751  0.4118508031102 1.0
A      1  0.2719936187379  0.4993345699186  0.7524112185462 1.0
A      1  0.3877711944859  0.4990525833174  0.9138116035140 1.0
A      1  0.1094853418718  0.6001917056556  0.0820362295345 1.0
A      1  0.2201694709375  0.6010413530214  0.2475133038301 1.0
A      1  0.1070132335200  0.6008681180183  0.4143221187133 1.0
A      1  0.2109263875404  0.6047128937302  0.5819505956135 1.0
A      1  0.1070912575548  0.6000220048455  0.7497923428055 1.0
A      1  0.2203433831114  0.6001369623884  0.9164049462326 1.0
A      1  0.9432385363572  0.7003435398179  0.0822737155549 1.0
A      1  0.0539508499688  0.7009272794117  0.2484345628742 1.0
A      1  0.9419894106448  0.7012069980759  0.4151243049324 1.0
A      1  0.0510142825885  0.7023801804554  0.5820221810071 1.0
A      1  0.9425097389762  0.7004629096541  0.7491569826501 1.0
A      1  0.0542077091936  0.7003980397081  0.9157829127181 1.0
A      1  0.7769548480735  0.3997146490883  0.0825747997594 1.0
A      1  0.8881524472175  0.4000471348933  0.2485439042500 1.0
A      1  0.7773499791701  0.4005662382926  0.4147715472301 1.0
A      1  0.8872847784648  0.3993987976753  0.5821834026337 1.0
A      1  0.7746374533915  0.3974603438272  0.7481043073811 1.0
A      1  0.8876769842327  0.3995876847916  0.9153375852224 1.0
A      1  0.6098761756635  0.5001545046628  0.0821311523399 1.0
A      1  0.7224500651451  0.5007754286349  0.2467196451040 1.0
A      1  0.7230347371041  0.5001541467261  0.5821314267633 1.0
A      1  0.6132146562998  0.5002396338298  0.7562504111892 1.0
A      1  0.7224501659478  0.4995336141609  0.9175427857146 1.0
A      1  0.4426597005318  0.5999944665909  0.0817027686333 1.0
A      1  0.5539792803993  0.6012136544313  0.2472137664291 1.0
A      1  0.4429539995427  0.5971408114932  0.7453970217779 1.0
A      1  0.5537818097803  0.6002239723939  0.9160325586442 1.0
A      1  0.2767226446289  0.7003297832362  0.0819286633832 1.0
A      1  0.3879172390551  0.7001487563322  0.2496889806343 1.0
A      1  0.2761837255757  0.6995156839177  0.4151875042310 1.0
A      1  0.3846074267093  0.6997820760350  0.5814263395521 1.0
A      1  0.2757875639720  0.6987924292956  0.7483250026344 1.0
A      1  0.3875384251854  0.6990191457948  0.9137770331496 1.0
A      1  0.1101441799374  0.8001749972434  0.0820913939700 1.0
A      1  0.2211772344128  0.8005022474409  0.2487244886847 1.0
A      1  0.1098671643170  0.8002724673742  0.4153055045447 1.0
A      1  0.2202714599525  0.8014773623881  0.5818032175455 1.0
A      1  0.1099337949845  0.7997624145707  0.7486904468797 1.0
A      1  0.2211148091309  0.7997355325123  0.9151944613366 1.0
A      1  0.9437039990044  0.9002806713462  0.0821718598996 1.0
A      1  0.0547543195952  0.9005658012686  0.2486765144256 1.0
A      1  0.9441182390522  0.9008021555594  0.4150697661305 1.0
A      1  0.0551122034268  0.9010473557236  0.5820523397413 1.0
A      1  0.9443180408591  0.9003068518243  0.7492392922700 1.0
A      1  0.0547863173415  0.9000640529906  0.9155941917860 1.0
A      1  0.7769548498030  0.6005944028926  0.0816877239951 1.0
A      1  0.8876768015914  0.6007213380899  0.2489250039840 1.0
A      1  0.7746370084450  0.6028486434493  0.4161585102736 1.0
A      1  0.8872846250447  0.6009101667155  0.5820791345841 1.0
A      1  0.7773501012107  0.5997428073472  0.7494909978557 1.0
A      1  0.8881525679978  0.6002618721785  0.9157186052861 1.0
A      1  0.6099139452982  0.7003902970525  0.0812412499229 1.0
A      1  0.7218078469447  0.7009745144935  0.2466185401029 1.0
A      1  0.6098682031869  0.7080361570474  0.4066872633805 1.0
A      1  0.7265251903361  0.7063846656822  0.5853092978094 1.0
A      1  0.6115925809350  0.6993900539458  0.7486390687567 1.0
A      1  0.7212606102114  0.6998501848007  0.9154557977551 1.0
A      1  0.4426878663742  0.7998446134087  0.0809200165250 1.0
A      1  0.5532695738071  0.8026851342113  0.2452926545485 1.0
A      1  0.4425595571281  0.8014043249947  0.4146329789335 1.0
A      1  0.5566241364442  0.8034384829544  0.5781206650044 1.0
A      1  0.4442137583375  0.7979426542422  0.7466432253743 1.0
A      1  0.5542912674687  0.7995476612298  0.9146269800096 1.0
A      1  0.2765611108605  0.9001851419350  0.0818213163519 1.0
A      1  0.3873168613863  0.9009545032271  0.2483308257996 1.0
A      1  0.2766084048376  0.9004901012903  0.4152122470519 1.0
A      1  0.3879566866209  0.8999748646281  0.5817352343719 1.0
A      1  0.2770490344002  0.8991639875787  0.7485862454138 1.0
A      1  0.3877479724898  0.8990813674325  0.9147135554085 1.0
A      1  0.1102254386626  0.0001544707603  0.0821311746095 1.0
A      1  0.2213184049466  0.0006364039387  0.2488062500555 1.0
A      1  0.1107492431315  0.0004794851977  0.4153191159416 1.0
A      1  0.2218601940493  0.0001544099746  0.5821311366805 1.0
A      1  0.1107493750753  0.9998294408456  0.7489432273610 1.0
A      1  0.2213185165278  0.9996725143166  0.9154560157523 1.0
A      1  0.7767916692137  0.8006340313921  0.0815028272238 1.0
A      1  0.8877787902273  0.8009665996192  0.2483979254105 1.0
A      1  0.7771074082248  0.8022574685068  0.4149575498371 1.0
A      1  0.8889736363842  0.8027102736664  0.5822917147127 1.0
A      1  0.7778116458987  0.8013202151127  0.7506372655069 1.0
A      1  0.8880923745679  0.8003153251892  0.9160122332723 1.0
A      1  0.6099773194763  0.9004667676039  0.0812106049398 1.0
A      1  0.7208956725912  0.9006428887956  0.2480242151255 1.0
A      1  0.6103354103201  0.9038426572390  0.4137386779717 1.0
A      1  0.7220398559126  0.9020964058305  0.5819591276540 1.0
A      1  0.6103240101615  0.8986540501735  0.7482369161583 1.0
A      1  0.7209237873633  0.9001507728469  0.9155824780130 1.0
A      1  0.4430364051010  0.0001544880868  0.0821311320422 1.0
A      1  0.5539604528725  0.0014414411147  0.2484526098566 1.0
A      1  0.4432069909908  0.0014266227830  0.4154790436571 1.0
A      1  0.5543342986047  0.0001547637213  0.5821311841461 1.0
A      1  0.4432071103014  0.9988823842681  0.7487832356619 1.0
A      1  0.5539605548589  0.9988676448580  0.9158097469956 1.0
A      1  0.7769459650401  0.0001545310806  0.0821312626909 1.0
A      1  0.8879401129073  0.0004393060640  0.2485021654550 1.0
A      1  0.7775939453716  0.0007610956016  0.4148942072345 1.0
A      1  0.8887407692499  0.0001545007028  0.5821312523000 1.0
A      1  0.7775940621546  0.9995480323549  0.7493683121956 1.0
A      1  0.8879402172290  0.9998696880610  0.9157603362340 1.0
END
