TITL AB-3956-736-2 0.0000000000 2951.4160000000 -127.2814944731 0 0  120 (P1) n - 1
REM
REM Run started: at Fri Oct 6 15:28:02 BST 2023 in /home/michal/install/eddp/airss/examples/1.12
REM pp3 from code version ## 0.9.3 July 2022 commit b0220bf5cbf550a3b7
REM
REM
REM
REM Total runtime: s
REM
REM
REM ./AB.cell (d3c0901f16acef4d5eed087d586b2303)
REM ## AIRSS Version 0.9.3 July 2022 commit b0220bf5cbf550a3b7
REM compiler GCC version 11.4.0
REM options -cpp -imultiarch x86_64-linux-gnu -mtune=generic -march=x86-64 -g -Og -fpre-include=/usr/include/finclude/math-vector-fortran.h
REM cmdline: airss.pl -pp3 -max 100 -seed AB 
REM seed 126418720 -128341611 493849359 1971273500 835587230 -819757686 -1441518407 11966096
REM
REM AB.pp (ef66129e7518019ba54bdb27cdb0311d)
REM 
CELL 1.54180   20.00000   20.00000    7.37854   90.00000   90.00000   90.00000
LATT -1
SFAC A  B  
A      1  0.7585900000000  0.5817200000000  0.1666667000000 1.0
A      1  0.7286300000000  0.6458700000000  0.1666667000000 1.0
A      1  0.6250600000000  0.7406400000000  0.1666667000000 1.0
A      1  0.5585200000000  0.7648100000000  0.1666667000000 1.0
A      1  0.2414100000000  0.4182800000000  0.1666667000000 1.0
A      1  0.2713700000000  0.3541300000000  0.1666667000000 1.0
A      1  0.3749400000000  0.2593600000000  0.1666667000000 1.0
A      1  0.4414800000000  0.2351900000000  0.1666667000000 1.0
A      1  0.4182800000000  0.7585900000000  0.1666667000000 1.0
A      1  0.3541300000000  0.7286300000000  0.1666667000000 1.0
A      1  0.2593600000000  0.6250600000000  0.1666667000000 1.0
A      1  0.2351900000000  0.5585200000000  0.1666667000000 1.0
A      1  0.5817200000000  0.2414100000000  0.1666667000000 1.0
A      1  0.6458700000000  0.2713700000000  0.1666667000000 1.0
A      1  0.7406400000000  0.3749400000000  0.1666667000000 1.0
A      1  0.7648100000000  0.4414800000000  0.1666667000000 1.0
A      1  0.7076300000000  0.6744600000000  0.0000000000000 1.0
A      1  0.7670500000000  0.5472700000000  0.0000000000000 1.0
A      1  0.6554000000000  0.7222600000000  0.0000000000000 1.0
A      1  0.5234600000000  0.7701800000000  0.0000000000000 1.0
A      1  0.2923700000000  0.3255400000000  0.0000000000000 1.0
A      1  0.2329500000000  0.4527300000000  0.0000000000000 1.0
A      1  0.3446000000000  0.2777400000000  0.0000000000000 1.0
A      1  0.4765400000000  0.2298200000000  0.0000000000000 1.0
A      1  0.3255400000000  0.7076300000000  0.0000000000000 1.0
A      1  0.4527300000000  0.7670500000000  0.0000000000000 1.0
A      1  0.2777400000000  0.6554000000000  0.0000000000000 1.0
A      1  0.2298200000000  0.5234600000000  0.0000000000000 1.0
A      1  0.6744600000000  0.2923700000000  0.0000000000000 1.0
A      1  0.5472700000000  0.2329500000000  0.0000000000000 1.0
A      1  0.7222600000000  0.3446000000000  0.0000000000000 1.0
A      1  0.7701800000000  0.4765400000000  0.0000000000000 1.0
B      2  0.5920096943166  0.4768568629223  0.9358519163062 1.0
B      2  0.6122805337257  0.6122715397848  0.5497301318079 1.0
B      2  0.3895614685509  0.5068400203167  0.3503279459837 1.0
B      2  0.5236532437089  0.4875564089710  0.4703616558310 1.0
B      2  0.3657452693193  0.5577609756718  0.0027233086652 1.0
B      2  0.4915101128294  0.6522146525536  0.5952944479489 1.0
B      2  0.3589278339714  0.4257995882307  0.0517937152138 1.0
B      2  0.5995800095011  0.3842120749772  0.6756712737037 1.0
B      2  0.4678963955103  0.3954495889371  0.7825198227088 1.0
B      2  0.5485941856965  0.6528347619964  0.2538976469064 1.0
B      2  0.4784747639513  0.4170287613687  0.1763501902222 1.0
B      2  0.5664065542686  0.3482069869708  0.0062890083678 1.0
B      2  0.4594952253947  0.6503828251271  0.9475999633467 1.0
B      2  0.3556491328235  0.4677601172844  0.7094066389203 1.0
B      2  0.6165815962847  0.4146671821683  0.2906995624432 1.0
B      2  0.6333322471389  0.5469954518773  0.2311654906307 1.0
B      2  0.3757583634422  0.5942271558391  0.6361993973511 1.0
B      2  0.6569143664441  0.4930934484332  0.5773706444572 1.0
B      2  0.3923438311416  0.3820621587763  0.4537838718527 1.0
B      2  0.4796085485759  0.5302874709942  0.7849197601590 1.0
B      2  0.5153379634843  0.3405426313823  0.4428780665760 1.0
B      2  0.4979096276790  0.5422226315808  0.1383170912676 1.0
B      2  0.4168581988760  0.6336806975667  0.2943868113271 1.0
B      2  0.5881764346132  0.6115484482472  0.9103905723306 1.0
A      1  0.7585900000000  0.5817200000000  0.5000000000000 1.0
A      1  0.7286300000000  0.6458700000000  0.5000000000000 1.0
A      1  0.6250600000000  0.7406400000000  0.5000000000000 1.0
A      1  0.5585200000000  0.7648100000000  0.5000000000000 1.0
A      1  0.2414100000000  0.4182800000000  0.5000000000000 1.0
A      1  0.2713700000000  0.3541300000000  0.5000000000000 1.0
A      1  0.3749400000000  0.2593600000000  0.5000000000000 1.0
A      1  0.4414800000000  0.2351900000000  0.5000000000000 1.0
A      1  0.4182800000000  0.7585900000000  0.5000000000000 1.0
A      1  0.3541300000000  0.7286300000000  0.5000000000000 1.0
A      1  0.2593600000000  0.6250600000000  0.5000000000000 1.0
A      1  0.2351900000000  0.5585200000000  0.5000000000000 1.0
A      1  0.5817200000000  0.2414100000000  0.5000000000000 1.0
A      1  0.6458700000000  0.2713700000000  0.5000000000000 1.0
A      1  0.7406400000000  0.3749400000000  0.5000000000000 1.0
A      1  0.7648100000000  0.4414800000000  0.5000000000000 1.0
A      1  0.7076300000000  0.6744600000000  0.3333333000000 1.0
A      1  0.7670500000000  0.5472700000000  0.3333333000000 1.0
A      1  0.6554000000000  0.7222600000000  0.3333333000000 1.0
A      1  0.5234600000000  0.7701800000000  0.3333333000000 1.0
A      1  0.2923700000000  0.3255400000000  0.3333333000000 1.0
A      1  0.2329500000000  0.4527300000000  0.3333333000000 1.0
A      1  0.3446000000000  0.2777400000000  0.3333333000000 1.0
A      1  0.4765400000000  0.2298200000000  0.3333333000000 1.0
A      1  0.3255400000000  0.7076300000000  0.3333333000000 1.0
A      1  0.4527300000000  0.7670500000000  0.3333333000000 1.0
A      1  0.2777400000000  0.6554000000000  0.3333333000000 1.0
A      1  0.2298200000000  0.5234600000000  0.3333333000000 1.0
A      1  0.6744600000000  0.2923700000000  0.3333333000000 1.0
A      1  0.5472700000000  0.2329500000000  0.3333333000000 1.0
A      1  0.7222600000000  0.3446000000000  0.3333333000000 1.0
A      1  0.7701800000000  0.4765400000000  0.3333333000000 1.0
A      1  0.7585900000000  0.5817200000000  0.8333333000000 1.0
A      1  0.7286300000000  0.6458700000000  0.8333333000000 1.0
A      1  0.6250600000000  0.7406400000000  0.8333333000000 1.0
A      1  0.5585200000000  0.7648100000000  0.8333333000000 1.0
A      1  0.2414100000000  0.4182800000000  0.8333333000000 1.0
A      1  0.2713700000000  0.3541300000000  0.8333333000000 1.0
A      1  0.3749400000000  0.2593600000000  0.8333333000000 1.0
A      1  0.4414800000000  0.2351900000000  0.8333333000000 1.0
A      1  0.4182800000000  0.7585900000000  0.8333333000000 1.0
A      1  0.3541300000000  0.7286300000000  0.8333333000000 1.0
A      1  0.2593600000000  0.6250600000000  0.8333333000000 1.0
A      1  0.2351900000000  0.5585200000000  0.8333333000000 1.0
A      1  0.5817200000000  0.2414100000000  0.8333333000000 1.0
A      1  0.6458700000000  0.2713700000000  0.8333333000000 1.0
A      1  0.7406400000000  0.3749400000000  0.8333333000000 1.0
A      1  0.7648100000000  0.4414800000000  0.8333333000000 1.0
A      1  0.7076300000000  0.6744600000000  0.6666667000000 1.0
A      1  0.7670500000000  0.5472700000000  0.6666667000000 1.0
A      1  0.6554000000000  0.7222600000000  0.6666667000000 1.0
A      1  0.5234600000000  0.7701800000000  0.6666667000000 1.0
A      1  0.2923700000000  0.3255400000000  0.6666667000000 1.0
A      1  0.2329500000000  0.4527300000000  0.6666667000000 1.0
A      1  0.3446000000000  0.2777400000000  0.6666667000000 1.0
A      1  0.4765400000000  0.2298200000000  0.6666667000000 1.0
A      1  0.3255400000000  0.7076300000000  0.6666667000000 1.0
A      1  0.4527300000000  0.7670500000000  0.6666667000000 1.0
A      1  0.2777400000000  0.6554000000000  0.6666667000000 1.0
A      1  0.2298200000000  0.5234600000000  0.6666667000000 1.0
A      1  0.6744600000000  0.2923700000000  0.6666667000000 1.0
A      1  0.5472700000000  0.2329500000000  0.6666667000000 1.0
A      1  0.7222600000000  0.3446000000000  0.6666667000000 1.0
A      1  0.7701800000000  0.4765400000000  0.6666667000000 1.0
END
