TITL AB-3956-736-85 0.0000000000 2951.4160000000 -128.9502492082 0 0  120 (P1) n - 1
REM
REM Run started: at Fri Oct 6 15:31:20 BST 2023 in /home/michal/install/eddp/airss/examples/1.12
REM pp3 from code version ## 0.9.3 July 2022 commit b0220bf5cbf550a3b7
REM
REM
REM
REM Total runtime: s
REM
REM
REM ./AB.cell (d3c0901f16acef4d5eed087d586b2303)
REM ## AIRSS Version 0.9.3 July 2022 commit b0220bf5cbf550a3b7
REM compiler GCC version 11.4.0
REM options -cpp -imultiarch x86_64-linux-gnu -mtune=generic -march=x86-64 -g -Og -fpre-include=/usr/include/finclude/math-vector-fortran.h
REM cmdline: airss.pl -pp3 -max 100 -seed AB 
REM seed -1807649598 697045675 1957361240 2128364226 -1349313448 1787289523 53064 192267334
REM
REM AB.pp (ef66129e7518019ba54bdb27cdb0311d)
REM 
CELL 1.54180   20.00000   20.00000    7.37854   90.00000   90.00000   90.00000
LATT -1
SFAC A  B  
A      1  0.7585900000000  0.5817200000000  0.1666667000000 1.0
A      1  0.7286300000000  0.6458700000000  0.1666667000000 1.0
A      1  0.6250600000000  0.7406400000000  0.1666667000000 1.0
A      1  0.5585200000000  0.7648100000000  0.1666667000000 1.0
A      1  0.2414100000000  0.4182800000000  0.1666667000000 1.0
A      1  0.2713700000000  0.3541300000000  0.1666667000000 1.0
A      1  0.3749400000000  0.2593600000000  0.1666667000000 1.0
A      1  0.4414800000000  0.2351900000000  0.1666667000000 1.0
A      1  0.4182800000000  0.7585900000000  0.1666667000000 1.0
A      1  0.3541300000000  0.7286300000000  0.1666667000000 1.0
A      1  0.2593600000000  0.6250600000000  0.1666667000000 1.0
A      1  0.2351900000000  0.5585200000000  0.1666667000000 1.0
A      1  0.5817200000000  0.2414100000000  0.1666667000000 1.0
A      1  0.6458700000000  0.2713700000000  0.1666667000000 1.0
A      1  0.7406400000000  0.3749400000000  0.1666667000000 1.0
A      1  0.7648100000000  0.4414800000000  0.1666667000000 1.0
A      1  0.7076300000000  0.6744600000000  0.0000000000000 1.0
A      1  0.7670500000000  0.5472700000000  0.0000000000000 1.0
A      1  0.6554000000000  0.7222600000000  0.0000000000000 1.0
A      1  0.5234600000000  0.7701800000000  0.0000000000000 1.0
A      1  0.2923700000000  0.3255400000000  0.0000000000000 1.0
A      1  0.2329500000000  0.4527300000000  0.0000000000000 1.0
A      1  0.3446000000000  0.2777400000000  0.0000000000000 1.0
A      1  0.4765400000000  0.2298200000000  0.0000000000000 1.0
A      1  0.3255400000000  0.7076300000000  0.0000000000000 1.0
A      1  0.4527300000000  0.7670500000000  0.0000000000000 1.0
A      1  0.2777400000000  0.6554000000000  0.0000000000000 1.0
A      1  0.2298200000000  0.5234600000000  0.0000000000000 1.0
A      1  0.6744600000000  0.2923700000000  0.0000000000000 1.0
A      1  0.5472700000000  0.2329500000000  0.0000000000000 1.0
A      1  0.7222600000000  0.3446000000000  0.0000000000000 1.0
A      1  0.7701800000000  0.4765400000000  0.0000000000000 1.0
B      2  0.3950432736454  0.5169171389095  0.7056645778793 1.0
B      2  0.4659050169840  0.5991330240289  0.9526277842569 1.0
B      2  0.4265300016565  0.6409744659758  0.6144023106867 1.0
B      2  0.4676909264588  0.4286713295666  0.5237925718198 1.0
B      2  0.5190868237308  0.5450277929111  0.5501218238553 1.0
B      2  0.5119120843348  0.3515245701944  0.8216009919166 1.0
B      2  0.5875412988597  0.3879419761701  0.1096925346432 1.0
B      2  0.3536143145076  0.4306554758512  0.3527764318373 1.0
B      2  0.5016106077716  0.6470195544409  0.2948092313169 1.0
B      2  0.6417484499428  0.5497223814723  0.7170445284931 1.0
B      2  0.6225806597913  0.5963497385936  0.3733993706164 1.0
B      2  0.6544122520621  0.5001999986671  0.0586895902195 1.0
B      2  0.5564621794788  0.6550181879326  0.6898370045442 1.0
B      2  0.4092171981036  0.5510122704438  0.3386121911061 1.0
B      2  0.5705422373237  0.3573066307999  0.4643447998766 1.0
B      2  0.3846132413136  0.3871085265466  0.7794533131999 1.0
B      2  0.5311311099314  0.4870171477191  0.8615559993178 1.0
B      2  0.6313384607527  0.4142812510823  0.7576914475056 1.0
B      2  0.5935906209694  0.6164257333284  0.0230733410927 1.0
B      2  0.4261004126397  0.4585353511197  0.0556441441404 1.0
B      2  0.4650945718727  0.3506153711724  0.2249686183176 1.0
B      2  0.6411562343937  0.4664546106700  0.4151715101721 1.0
B      2  0.3440899792568  0.5576484012421  0.0211300363895 1.0
B      2  0.5325972394238  0.5091991465933  0.2150176314685 1.0
A      1  0.7585900000000  0.5817200000000  0.5000000000000 1.0
A      1  0.7286300000000  0.6458700000000  0.5000000000000 1.0
A      1  0.6250600000000  0.7406400000000  0.5000000000000 1.0
A      1  0.5585200000000  0.7648100000000  0.5000000000000 1.0
A      1  0.2414100000000  0.4182800000000  0.5000000000000 1.0
A      1  0.2713700000000  0.3541300000000  0.5000000000000 1.0
A      1  0.3749400000000  0.2593600000000  0.5000000000000 1.0
A      1  0.4414800000000  0.2351900000000  0.5000000000000 1.0
A      1  0.4182800000000  0.7585900000000  0.5000000000000 1.0
A      1  0.3541300000000  0.7286300000000  0.5000000000000 1.0
A      1  0.2593600000000  0.6250600000000  0.5000000000000 1.0
A      1  0.2351900000000  0.5585200000000  0.5000000000000 1.0
A      1  0.5817200000000  0.2414100000000  0.5000000000000 1.0
A      1  0.6458700000000  0.2713700000000  0.5000000000000 1.0
A      1  0.7406400000000  0.3749400000000  0.5000000000000 1.0
A      1  0.7648100000000  0.4414800000000  0.5000000000000 1.0
A      1  0.7076300000000  0.6744600000000  0.3333333000000 1.0
A      1  0.7670500000000  0.5472700000000  0.3333333000000 1.0
A      1  0.6554000000000  0.7222600000000  0.3333333000000 1.0
A      1  0.5234600000000  0.7701800000000  0.3333333000000 1.0
A      1  0.2923700000000  0.3255400000000  0.3333333000000 1.0
A      1  0.2329500000000  0.4527300000000  0.3333333000000 1.0
A      1  0.3446000000000  0.2777400000000  0.3333333000000 1.0
A      1  0.4765400000000  0.2298200000000  0.3333333000000 1.0
A      1  0.3255400000000  0.7076300000000  0.3333333000000 1.0
A      1  0.4527300000000  0.7670500000000  0.3333333000000 1.0
A      1  0.2777400000000  0.6554000000000  0.3333333000000 1.0
A      1  0.2298200000000  0.5234600000000  0.3333333000000 1.0
A      1  0.6744600000000  0.2923700000000  0.3333333000000 1.0
A      1  0.5472700000000  0.2329500000000  0.3333333000000 1.0
A      1  0.7222600000000  0.3446000000000  0.3333333000000 1.0
A      1  0.7701800000000  0.4765400000000  0.3333333000000 1.0
A      1  0.7585900000000  0.5817200000000  0.8333333000000 1.0
A      1  0.7286300000000  0.6458700000000  0.8333333000000 1.0
A      1  0.6250600000000  0.7406400000000  0.8333333000000 1.0
A      1  0.5585200000000  0.7648100000000  0.8333333000000 1.0
A      1  0.2414100000000  0.4182800000000  0.8333333000000 1.0
A      1  0.2713700000000  0.3541300000000  0.8333333000000 1.0
A      1  0.3749400000000  0.2593600000000  0.8333333000000 1.0
A      1  0.4414800000000  0.2351900000000  0.8333333000000 1.0
A      1  0.4182800000000  0.7585900000000  0.8333333000000 1.0
A      1  0.3541300000000  0.7286300000000  0.8333333000000 1.0
A      1  0.2593600000000  0.6250600000000  0.8333333000000 1.0
A      1  0.2351900000000  0.5585200000000  0.8333333000000 1.0
A      1  0.5817200000000  0.2414100000000  0.8333333000000 1.0
A      1  0.6458700000000  0.2713700000000  0.8333333000000 1.0
A      1  0.7406400000000  0.3749400000000  0.8333333000000 1.0
A      1  0.7648100000000  0.4414800000000  0.8333333000000 1.0
A      1  0.7076300000000  0.6744600000000  0.6666667000000 1.0
A      1  0.7670500000000  0.5472700000000  0.6666667000000 1.0
A      1  0.6554000000000  0.7222600000000  0.6666667000000 1.0
A      1  0.5234600000000  0.7701800000000  0.6666667000000 1.0
A      1  0.2923700000000  0.3255400000000  0.6666667000000 1.0
A      1  0.2329500000000  0.4527300000000  0.6666667000000 1.0
A      1  0.3446000000000  0.2777400000000  0.6666667000000 1.0
A      1  0.4765400000000  0.2298200000000  0.6666667000000 1.0
A      1  0.3255400000000  0.7076300000000  0.6666667000000 1.0
A      1  0.4527300000000  0.7670500000000  0.6666667000000 1.0
A      1  0.2777400000000  0.6554000000000  0.6666667000000 1.0
A      1  0.2298200000000  0.5234600000000  0.6666667000000 1.0
A      1  0.6744600000000  0.2923700000000  0.6666667000000 1.0
A      1  0.5472700000000  0.2329500000000  0.6666667000000 1.0
A      1  0.7222600000000  0.3446000000000  0.6666667000000 1.0
A      1  0.7701800000000  0.4765400000000  0.6666667000000 1.0
END
