TITL AB-3956-736-62 0.0000000000 2951.4160000000 -128.9395569743 0 0  120 (P1) n - 1
REM
REM Run started: at Fri Oct 6 15:30:25 BST 2023 in /home/michal/install/eddp/airss/examples/1.12
REM pp3 from code version ## 0.9.3 July 2022 commit b0220bf5cbf550a3b7
REM
REM
REM
REM Total runtime: s
REM
REM
REM ./AB.cell (d3c0901f16acef4d5eed087d586b2303)
REM ## AIRSS Version 0.9.3 July 2022 commit b0220bf5cbf550a3b7
REM compiler GCC version 11.4.0
REM options -cpp -imultiarch x86_64-linux-gnu -mtune=generic -march=x86-64 -g -Og -fpre-include=/usr/include/finclude/math-vector-fortran.h
REM cmdline: airss.pl -pp3 -max 100 -seed AB 
REM seed 1253101312 -1976218669 1451570858 137769894 -1501333904 -1521308472 -1447586849 -1808050737
REM
REM AB.pp (ef66129e7518019ba54bdb27cdb0311d)
REM 
CELL 1.54180   20.00000   20.00000    7.37854   90.00000   90.00000   90.00000
LATT -1
SFAC A  B  
A      1  0.7585900000000  0.5817200000000  0.1666667000000 1.0
A      1  0.7286300000000  0.6458700000000  0.1666667000000 1.0
A      1  0.6250600000000  0.7406400000000  0.1666667000000 1.0
A      1  0.5585200000000  0.7648100000000  0.1666667000000 1.0
A      1  0.2414100000000  0.4182800000000  0.1666667000000 1.0
A      1  0.2713700000000  0.3541300000000  0.1666667000000 1.0
A      1  0.3749400000000  0.2593600000000  0.1666667000000 1.0
A      1  0.4414800000000  0.2351900000000  0.1666667000000 1.0
A      1  0.4182800000000  0.7585900000000  0.1666667000000 1.0
A      1  0.3541300000000  0.7286300000000  0.1666667000000 1.0
A      1  0.2593600000000  0.6250600000000  0.1666667000000 1.0
A      1  0.2351900000000  0.5585200000000  0.1666667000000 1.0
A      1  0.5817200000000  0.2414100000000  0.1666667000000 1.0
A      1  0.6458700000000  0.2713700000000  0.1666667000000 1.0
A      1  0.7406400000000  0.3749400000000  0.1666667000000 1.0
A      1  0.7648100000000  0.4414800000000  0.1666667000000 1.0
A      1  0.7076300000000  0.6744600000000  0.0000000000000 1.0
A      1  0.7670500000000  0.5472700000000  0.0000000000000 1.0
A      1  0.6554000000000  0.7222600000000  0.0000000000000 1.0
A      1  0.5234600000000  0.7701800000000  0.0000000000000 1.0
A      1  0.2923700000000  0.3255400000000  0.0000000000000 1.0
A      1  0.2329500000000  0.4527300000000  0.0000000000000 1.0
A      1  0.3446000000000  0.2777400000000  0.0000000000000 1.0
A      1  0.4765400000000  0.2298200000000  0.0000000000000 1.0
A      1  0.3255400000000  0.7076300000000  0.0000000000000 1.0
A      1  0.4527300000000  0.7670500000000  0.0000000000000 1.0
A      1  0.2777400000000  0.6554000000000  0.0000000000000 1.0
A      1  0.2298200000000  0.5234600000000  0.0000000000000 1.0
A      1  0.6744600000000  0.2923700000000  0.0000000000000 1.0
A      1  0.5472700000000  0.2329500000000  0.0000000000000 1.0
A      1  0.7222600000000  0.3446000000000  0.0000000000000 1.0
A      1  0.7701800000000  0.4765400000000  0.0000000000000 1.0
B      2  0.3753005051432  0.5977598169556  0.1453522221362 1.0
B      2  0.4892670395823  0.3611011187420  0.6832983092407 1.0
B      2  0.5186959059829  0.4044466586995  0.3078185505077 1.0
B      2  0.4783184377797  0.5307581159492  0.2728355976191 1.0
B      2  0.3698252849676  0.4636690164795  0.1106962374779 1.0
B      2  0.6491051933626  0.5764076014700  0.3449575901268 1.0
B      2  0.5745622242735  0.3641952009996  0.9782227129975 1.0
B      2  0.6129674806851  0.3828013168767  0.5593896249173 1.0
B      2  0.3949274311422  0.3856361320507  0.4130710988573 1.0
B      2  0.6389436624732  0.4498933402850  0.2191891034909 1.0
B      2  0.5727361132655  0.5036347960901  0.5344836964883 1.0
B      2  0.3393279129433  0.5076011555336  0.4403365539481 1.0
B      2  0.4914626060508  0.4697605424994  0.9392392497698 1.0
B      2  0.4867700281051  0.5975896913275  0.8026387129799 1.0
B      2  0.6216586672643  0.6000032575151  0.7351465288703 1.0
B      2  0.5800071477225  0.5584715619751  0.0532090197802 1.0
B      2  0.3593148410918  0.5481287564250  0.8075924862979 1.0
B      2  0.4512511660649  0.4888748410217  0.6023324275104 1.0
B      2  0.4946671380262  0.6573429450839  0.1325334856866 1.0
B      2  0.4078512234934  0.6185479582516  0.5044304825723 1.0
B      2  0.5384685528969  0.6369049393692  0.4698307075747 1.0
B      2  0.4415267413864  0.3520542706327  0.0445978035667 1.0
B      2  0.6413437150957  0.4691466902500  0.8391886900154 1.0
B      2  0.3692463602788  0.4126275723477  0.7756945070148 1.0
A      1  0.7585900000000  0.5817200000000  0.5000000000000 1.0
A      1  0.7286300000000  0.6458700000000  0.5000000000000 1.0
A      1  0.6250600000000  0.7406400000000  0.5000000000000 1.0
A      1  0.5585200000000  0.7648100000000  0.5000000000000 1.0
A      1  0.2414100000000  0.4182800000000  0.5000000000000 1.0
A      1  0.2713700000000  0.3541300000000  0.5000000000000 1.0
A      1  0.3749400000000  0.2593600000000  0.5000000000000 1.0
A      1  0.4414800000000  0.2351900000000  0.5000000000000 1.0
A      1  0.4182800000000  0.7585900000000  0.5000000000000 1.0
A      1  0.3541300000000  0.7286300000000  0.5000000000000 1.0
A      1  0.2593600000000  0.6250600000000  0.5000000000000 1.0
A      1  0.2351900000000  0.5585200000000  0.5000000000000 1.0
A      1  0.5817200000000  0.2414100000000  0.5000000000000 1.0
A      1  0.6458700000000  0.2713700000000  0.5000000000000 1.0
A      1  0.7406400000000  0.3749400000000  0.5000000000000 1.0
A      1  0.7648100000000  0.4414800000000  0.5000000000000 1.0
A      1  0.7076300000000  0.6744600000000  0.3333333000000 1.0
A      1  0.7670500000000  0.5472700000000  0.3333333000000 1.0
A      1  0.6554000000000  0.7222600000000  0.3333333000000 1.0
A      1  0.5234600000000  0.7701800000000  0.3333333000000 1.0
A      1  0.2923700000000  0.3255400000000  0.3333333000000 1.0
A      1  0.2329500000000  0.4527300000000  0.3333333000000 1.0
A      1  0.3446000000000  0.2777400000000  0.3333333000000 1.0
A      1  0.4765400000000  0.2298200000000  0.3333333000000 1.0
A      1  0.3255400000000  0.7076300000000  0.3333333000000 1.0
A      1  0.4527300000000  0.7670500000000  0.3333333000000 1.0
A      1  0.2777400000000  0.6554000000000  0.3333333000000 1.0
A      1  0.2298200000000  0.5234600000000  0.3333333000000 1.0
A      1  0.6744600000000  0.2923700000000  0.3333333000000 1.0
A      1  0.5472700000000  0.2329500000000  0.3333333000000 1.0
A      1  0.7222600000000  0.3446000000000  0.3333333000000 1.0
A      1  0.7701800000000  0.4765400000000  0.3333333000000 1.0
A      1  0.7585900000000  0.5817200000000  0.8333333000000 1.0
A      1  0.7286300000000  0.6458700000000  0.8333333000000 1.0
A      1  0.6250600000000  0.7406400000000  0.8333333000000 1.0
A      1  0.5585200000000  0.7648100000000  0.8333333000000 1.0
A      1  0.2414100000000  0.4182800000000  0.8333333000000 1.0
A      1  0.2713700000000  0.3541300000000  0.8333333000000 1.0
A      1  0.3749400000000  0.2593600000000  0.8333333000000 1.0
A      1  0.4414800000000  0.2351899999999  0.8333333000000 1.0
A      1  0.4182800000000  0.7585900000000  0.8333333000000 1.0
A      1  0.3541300000000  0.7286300000000  0.8333333000000 1.0
A      1  0.2593600000000  0.6250600000000  0.8333333000000 1.0
A      1  0.2351900000000  0.5585200000000  0.8333333000000 1.0
A      1  0.5817200000000  0.2414099999999  0.8333333000000 1.0
A      1  0.6458700000000  0.2713700000000  0.8333333000000 1.0
A      1  0.7406400000000  0.3749400000000  0.8333333000000 1.0
A      1  0.7648100000000  0.4414800000000  0.8333333000000 1.0
A      1  0.7076300000000  0.6744600000000  0.6666667000000 1.0
A      1  0.7670500000000  0.5472700000000  0.6666667000000 1.0
A      1  0.6554000000000  0.7222600000000  0.6666667000000 1.0
A      1  0.5234600000000  0.7701800000000  0.6666667000000 1.0
A      1  0.2923700000000  0.3255400000000  0.6666667000000 1.0
A      1  0.2329500000000  0.4527300000000  0.6666667000000 1.0
A      1  0.3446000000000  0.2777400000000  0.6666667000000 1.0
A      1  0.4765400000000  0.2298199999999  0.6666667000000 1.0
A      1  0.3255400000000  0.7076300000000  0.6666667000000 1.0
A      1  0.4527300000000  0.7670500000000  0.6666667000000 1.0
A      1  0.2777400000000  0.6554000000000  0.6666667000000 1.0
A      1  0.2298200000000  0.5234600000000  0.6666667000000 1.0
A      1  0.6744600000000  0.2923700000000  0.6666667000000 1.0
A      1  0.5472700000000  0.2329499999999  0.6666667000000 1.0
A      1  0.7222600000000  0.3446000000000  0.6666667000000 1.0
A      1  0.7701800000000  0.4765400000000  0.6666667000000 1.0
END
