TITL AB-3956-736-67 0.0000000000 2951.4160000000 -129.2244552697 0 0  120 (P1) n - 1
REM
REM Run started: at Fri Oct 6 15:30:37 BST 2023 in /home/michal/install/eddp/airss/examples/1.12
REM pp3 from code version ## 0.9.3 July 2022 commit b0220bf5cbf550a3b7
REM
REM
REM
REM Total runtime: s
REM
REM
REM ./AB.cell (d3c0901f16acef4d5eed087d586b2303)
REM ## AIRSS Version 0.9.3 July 2022 commit b0220bf5cbf550a3b7
REM compiler GCC version 11.4.0
REM options -cpp -imultiarch x86_64-linux-gnu -mtune=generic -march=x86-64 -g -Og -fpre-include=/usr/include/finclude/math-vector-fortran.h
REM cmdline: airss.pl -pp3 -max 100 -seed AB 
REM seed -1910352658 -503266852 468958550 232232422 -345599083 401126096 1639219402 1778371724
REM
REM AB.pp (ef66129e7518019ba54bdb27cdb0311d)
REM 
CELL 1.54180   20.00000   20.00000    7.37854   90.00000   90.00000   90.00000
LATT -1
SFAC A  B  
A      1  0.7585900000000  0.5817200000000  0.1666667000000 1.0
A      1  0.7286300000000  0.6458700000000  0.1666667000000 1.0
A      1  0.6250600000000  0.7406400000000  0.1666667000000 1.0
A      1  0.5585200000000  0.7648100000000  0.1666667000000 1.0
A      1  0.2414100000000  0.4182800000000  0.1666667000000 1.0
A      1  0.2713700000000  0.3541300000000  0.1666667000000 1.0
A      1  0.3749400000000  0.2593600000000  0.1666667000000 1.0
A      1  0.4414800000000  0.2351900000000  0.1666667000000 1.0
A      1  0.4182800000000  0.7585900000000  0.1666667000000 1.0
A      1  0.3541300000000  0.7286300000000  0.1666667000000 1.0
A      1  0.2593600000000  0.6250600000000  0.1666667000000 1.0
A      1  0.2351900000000  0.5585200000000  0.1666667000000 1.0
A      1  0.5817200000000  0.2414100000000  0.1666667000000 1.0
A      1  0.6458700000000  0.2713700000000  0.1666667000000 1.0
A      1  0.7406400000000  0.3749400000000  0.1666667000000 1.0
A      1  0.7648100000000  0.4414800000000  0.1666667000000 1.0
A      1  0.7076300000000  0.6744600000000  0.0000000000000 1.0
A      1  0.7670500000000  0.5472700000000  0.0000000000000 1.0
A      1  0.6554000000000  0.7222600000000  0.0000000000000 1.0
A      1  0.5234600000000  0.7701800000000  0.0000000000000 1.0
A      1  0.2923700000000  0.3255400000000  0.0000000000000 1.0
A      1  0.2329500000000  0.4527300000000  0.0000000000000 1.0
A      1  0.3446000000000  0.2777400000000  0.0000000000000 1.0
A      1  0.4765400000000  0.2298200000000  0.0000000000000 1.0
A      1  0.3255400000000  0.7076300000000  0.0000000000000 1.0
A      1  0.4527300000000  0.7670500000000  0.0000000000000 1.0
A      1  0.2777400000000  0.6554000000000  0.0000000000000 1.0
A      1  0.2298200000000  0.5234600000000  0.0000000000000 1.0
A      1  0.6744600000000  0.2923700000000  0.0000000000000 1.0
A      1  0.5472700000000  0.2329500000000  0.0000000000000 1.0
A      1  0.7222600000000  0.3446000000000  0.0000000000000 1.0
A      1  0.7701800000000  0.4765400000000  0.0000000000000 1.0
B      2  0.4807440483599  0.4192273616692  0.8575080468922 1.0
B      2  0.6381018444633  0.4422999759486  0.8527148148485 1.0
B      2  0.4319091657883  0.3658924531325  0.5533555927146 1.0
B      2  0.5080215451719  0.5443923320488  0.8617010272138 1.0
B      2  0.5364601226580  0.4115161344655  0.3633703097692 1.0
B      2  0.4135156901669  0.6216575559312  0.6664401167536 1.0
B      2  0.3541685807508  0.4422447823199  0.3326648907455 1.0
B      2  0.4596956054796  0.4969506292564  0.1663272893954 1.0
B      2  0.3736616247995  0.5765759091306  0.3396998855618 1.0
B      2  0.5945271168519  0.5029722466180  0.1503370301857 1.0
B      2  0.6373098035398  0.5685760029968  0.7659427164816 1.0
B      2  0.5069886761595  0.5278901071897  0.5073073805980 1.0
B      2  0.3566375135100  0.5569357005501  0.9701584912316 1.0
B      2  0.4415489325096  0.3573734971708  0.1701679300874 1.0
B      2  0.5710240147862  0.3572005877486  0.0533202470838 1.0
B      2  0.5684271735451  0.3530154885207  0.6659972651554 1.0
B      2  0.5790048055055  0.6318605419255  0.0610614357342 1.0
B      2  0.3562597350319  0.4264220721785  0.9673329154078 1.0
B      2  0.3892868846904  0.4908066143251  0.6572782124587 1.0
B      2  0.4896054625084  0.6474204897022  0.3530986326911 1.0
B      2  0.5419537430653  0.6544556697892  0.6904071025447 1.0
B      2  0.4477095186455  0.6487793897579  0.0135261905288 1.0
B      2  0.6431480739618  0.4720616968377  0.4969472741598 1.0
B      2  0.6151255967593  0.6001935611850  0.4082283024626 1.0
A      1  0.7585900000000  0.5817200000000  0.5000000000000 1.0
A      1  0.7286300000000  0.6458700000000  0.5000000000000 1.0
A      1  0.6250600000000  0.7406400000000  0.5000000000000 1.0
A      1  0.5585200000000  0.7648100000000  0.5000000000000 1.0
A      1  0.2414100000000  0.4182800000000  0.5000000000000 1.0
A      1  0.2713700000000  0.3541300000000  0.5000000000000 1.0
A      1  0.3749400000000  0.2593600000000  0.5000000000000 1.0
A      1  0.4414800000000  0.2351900000000  0.5000000000000 1.0
A      1  0.4182800000000  0.7585900000000  0.5000000000000 1.0
A      1  0.3541300000000  0.7286300000000  0.5000000000000 1.0
A      1  0.2593600000000  0.6250600000000  0.5000000000000 1.0
A      1  0.2351900000000  0.5585200000000  0.5000000000000 1.0
A      1  0.5817200000000  0.2414100000000  0.5000000000000 1.0
A      1  0.6458700000000  0.2713700000000  0.5000000000000 1.0
A      1  0.7406400000000  0.3749400000000  0.5000000000000 1.0
A      1  0.7648100000000  0.4414800000000  0.5000000000000 1.0
A      1  0.7076300000000  0.6744600000000  0.3333333000000 1.0
A      1  0.7670500000000  0.5472700000000  0.3333333000000 1.0
A      1  0.6554000000000  0.7222600000000  0.3333333000000 1.0
A      1  0.5234600000000  0.7701800000000  0.3333333000000 1.0
A      1  0.2923700000000  0.3255400000000  0.3333333000000 1.0
A      1  0.2329500000000  0.4527300000000  0.3333333000000 1.0
A      1  0.3446000000000  0.2777400000000  0.3333333000000 1.0
A      1  0.4765400000000  0.2298200000000  0.3333333000000 1.0
A      1  0.3255400000000  0.7076300000000  0.3333333000000 1.0
A      1  0.4527300000000  0.7670500000000  0.3333333000000 1.0
A      1  0.2777400000000  0.6554000000000  0.3333333000000 1.0
A      1  0.2298200000000  0.5234600000000  0.3333333000000 1.0
A      1  0.6744600000000  0.2923700000000  0.3333333000000 1.0
A      1  0.5472700000000  0.2329500000000  0.3333333000000 1.0
A      1  0.7222600000000  0.3446000000000  0.3333333000000 1.0
A      1  0.7701800000000  0.4765400000000  0.3333333000000 1.0
A      1  0.7585900000000  0.5817200000000  0.8333333000000 1.0
A      1  0.7286300000000  0.6458700000000  0.8333333000000 1.0
A      1  0.6250600000000  0.7406400000000  0.8333333000000 1.0
A      1  0.5585200000000  0.7648100000000  0.8333333000000 1.0
A      1  0.2414100000000  0.4182800000000  0.8333333000000 1.0
A      1  0.2713700000000  0.3541300000000  0.8333333000000 1.0
A      1  0.3749400000000  0.2593600000000  0.8333333000000 1.0
A      1  0.4414800000000  0.2351900000000  0.8333333000000 1.0
A      1  0.4182800000000  0.7585900000000  0.8333333000000 1.0
A      1  0.3541300000000  0.7286300000000  0.8333333000000 1.0
A      1  0.2593600000000  0.6250600000000  0.8333333000000 1.0
A      1  0.2351900000000  0.5585200000000  0.8333333000000 1.0
A      1  0.5817200000000  0.2414100000000  0.8333333000000 1.0
A      1  0.6458700000000  0.2713700000000  0.8333333000000 1.0
A      1  0.7406400000000  0.3749400000000  0.8333333000000 1.0
A      1  0.7648100000000  0.4414800000000  0.8333333000000 1.0
A      1  0.7076300000000  0.6744600000000  0.6666667000000 1.0
A      1  0.7670500000000  0.5472700000000  0.6666667000000 1.0
A      1  0.6554000000000  0.7222600000000  0.6666667000000 1.0
A      1  0.5234600000000  0.7701800000000  0.6666667000000 1.0
A      1  0.2923700000000  0.3255400000000  0.6666667000000 1.0
A      1  0.2329500000000  0.4527300000000  0.6666667000000 1.0
A      1  0.3446000000000  0.2777400000000  0.6666667000000 1.0
A      1  0.4765400000000  0.2298200000000  0.6666667000000 1.0
A      1  0.3255400000000  0.7076300000000  0.6666667000000 1.0
A      1  0.4527300000000  0.7670500000000  0.6666667000000 1.0
A      1  0.2777400000000  0.6554000000000  0.6666667000000 1.0
A      1  0.2298200000000  0.5234600000000  0.6666667000000 1.0
A      1  0.6744600000000  0.2923700000000  0.6666667000000 1.0
A      1  0.5472700000000  0.2329500000000  0.6666667000000 1.0
A      1  0.7222600000000  0.3446000000000  0.6666667000000 1.0
A      1  0.7701800000000  0.4765400000000  0.6666667000000 1.0
END
