TITL AB-3956-736-87 0.0000000000 2951.4160000000 -129.8633178835 0 0  120 (P1) n - 1
REM
REM Run started: at Fri Oct 6 15:31:25 BST 2023 in /home/michal/install/eddp/airss/examples/1.12
REM pp3 from code version ## 0.9.3 July 2022 commit b0220bf5cbf550a3b7
REM
REM
REM
REM Total runtime: s
REM
REM
REM ./AB.cell (d3c0901f16acef4d5eed087d586b2303)
REM ## AIRSS Version 0.9.3 July 2022 commit b0220bf5cbf550a3b7
REM compiler GCC version 11.4.0
REM options -cpp -imultiarch x86_64-linux-gnu -mtune=generic -march=x86-64 -g -Og -fpre-include=/usr/include/finclude/math-vector-fortran.h
REM cmdline: airss.pl -pp3 -max 100 -seed AB 
REM seed 1287203847 1227292389 449050154 -2105716878 1038978123 -819412902 -1075544866 -983162423
REM
REM AB.pp (ef66129e7518019ba54bdb27cdb0311d)
REM 
CELL 1.54180   20.00000   20.00000    7.37854   90.00000   90.00000   90.00000
LATT -1
SFAC A  B  
A      1  0.7585900000000  0.5817200000000  0.1666667000000 1.0
A      1  0.7286300000000  0.6458700000000  0.1666667000000 1.0
A      1  0.6250600000000  0.7406400000000  0.1666667000000 1.0
A      1  0.5585200000000  0.7648100000000  0.1666667000000 1.0
A      1  0.2414100000000  0.4182800000000  0.1666667000000 1.0
A      1  0.2713700000000  0.3541300000000  0.1666667000000 1.0
A      1  0.3749400000000  0.2593600000000  0.1666667000000 1.0
A      1  0.4414800000000  0.2351900000000  0.1666667000000 1.0
A      1  0.4182800000000  0.7585900000000  0.1666667000000 1.0
A      1  0.3541300000000  0.7286300000000  0.1666667000000 1.0
A      1  0.2593600000000  0.6250600000000  0.1666667000000 1.0
A      1  0.2351900000000  0.5585200000000  0.1666667000000 1.0
A      1  0.5817200000000  0.2414100000000  0.1666667000000 1.0
A      1  0.6458700000000  0.2713700000000  0.1666667000000 1.0
A      1  0.7406400000000  0.3749400000000  0.1666667000000 1.0
A      1  0.7648100000000  0.4414800000000  0.1666667000000 1.0
A      1  0.7076300000000  0.6744600000000  0.0000000000000 1.0
A      1  0.7670500000000  0.5472700000000  0.0000000000000 1.0
A      1  0.6554000000000  0.7222600000000  0.0000000000000 1.0
A      1  0.5234600000000  0.7701800000000  0.0000000000000 1.0
A      1  0.2923700000000  0.3255400000000  0.0000000000000 1.0
A      1  0.2329500000000  0.4527300000000  0.0000000000000 1.0
A      1  0.3446000000000  0.2777400000000  0.0000000000000 1.0
A      1  0.4765400000000  0.2298200000000  0.0000000000000 1.0
A      1  0.3255400000000  0.7076300000000  0.0000000000000 1.0
A      1  0.4527300000000  0.7670500000000  0.0000000000000 1.0
A      1  0.2777400000000  0.6554000000000  0.0000000000000 1.0
A      1  0.2298200000000  0.5234600000000  0.0000000000000 1.0
A      1  0.6744600000000  0.2923700000000  0.0000000000000 1.0
A      1  0.5472700000000  0.2329500000000  0.0000000000000 1.0
A      1  0.7222600000000  0.3446000000000  0.0000000000000 1.0
A      1  0.7701800000000  0.4765400000000  0.0000000000000 1.0
B      2  0.5090437728353  0.6435722340726  0.5773071303715 1.0
B      2  0.6419170476855  0.4407745814422  0.1314928399133 1.0
B      2  0.5527646636098  0.6445100146082  0.9234989560008 1.0
B      2  0.5576522134019  0.3556033143713  0.2844429019289 1.0
B      2  0.5332208193222  0.5253854437671  0.0896431496325 1.0
B      2  0.4255607132924  0.6064650801135  0.8736767503793 1.0
B      2  0.4302627024542  0.3621430479758  0.1769141589944 1.0
B      2  0.6400040865607  0.4580170613740  0.7726933934501 1.0
B      2  0.4734262358239  0.6501787490638  0.2166821808933 1.0
B      2  0.4656709155274  0.5312967969001  0.3883165879256 1.0
B      2  0.3809934057511  0.6137176883919  0.5300226472898 1.0
B      2  0.6257929427350  0.5829286317262  0.6504778235872 1.0
B      2  0.3709641206671  0.4934953318203  0.6770536828777 1.0
B      2  0.4626393468865  0.4087235469866  0.5057443143474 1.0
B      2  0.5712526847167  0.3558761017884  0.6426335561963 1.0
B      2  0.5288006688052  0.4029369292074  0.9521813485525 1.0
B      2  0.5852301943572  0.4774869898647  0.4400874188651 1.0
B      2  0.5971209675350  0.6099792539146  0.3063425650945 1.0
B      2  0.4079370418651  0.3712583742855  0.8110973376538 1.0
B      2  0.3628612886560  0.5785620309545  0.1865226928456 1.0
B      2  0.6526848309316  0.5633738043812  0.0001088770164 1.0
B      2  0.5092658816440  0.5120551209555  0.7326621682387 1.0
B      2  0.4154844359750  0.4792251966869  0.0125883917347 1.0
B      2  0.3524560161815  0.4553548170203  0.3329207526400 1.0
A      1  0.7585900000000  0.5817200000000  0.5000000000000 1.0
A      1  0.7286300000000  0.6458700000000  0.5000000000000 1.0
A      1  0.6250600000000  0.7406400000000  0.5000000000000 1.0
A      1  0.5585200000000  0.7648100000000  0.5000000000000 1.0
A      1  0.2414100000000  0.4182800000000  0.5000000000000 1.0
A      1  0.2713700000000  0.3541300000000  0.5000000000000 1.0
A      1  0.3749400000000  0.2593600000000  0.5000000000000 1.0
A      1  0.4414800000000  0.2351900000000  0.5000000000000 1.0
A      1  0.4182800000000  0.7585900000000  0.5000000000000 1.0
A      1  0.3541300000000  0.7286300000000  0.5000000000000 1.0
A      1  0.2593600000000  0.6250600000000  0.5000000000000 1.0
A      1  0.2351900000000  0.5585200000000  0.5000000000000 1.0
A      1  0.5817200000000  0.2414100000000  0.5000000000000 1.0
A      1  0.6458700000000  0.2713700000000  0.5000000000000 1.0
A      1  0.7406400000000  0.3749400000000  0.5000000000000 1.0
A      1  0.7648100000000  0.4414800000000  0.5000000000000 1.0
A      1  0.7076300000000  0.6744600000000  0.3333333000000 1.0
A      1  0.7670500000000  0.5472700000000  0.3333333000000 1.0
A      1  0.6554000000000  0.7222600000000  0.3333333000000 1.0
A      1  0.5234600000000  0.7701800000000  0.3333333000000 1.0
A      1  0.2923700000000  0.3255400000000  0.3333333000000 1.0
A      1  0.2329500000000  0.4527300000000  0.3333333000000 1.0
A      1  0.3446000000000  0.2777400000000  0.3333333000000 1.0
A      1  0.4765400000000  0.2298200000000  0.3333333000000 1.0
A      1  0.3255400000000  0.7076300000000  0.3333333000000 1.0
A      1  0.4527300000000  0.7670500000000  0.3333333000000 1.0
A      1  0.2777400000000  0.6554000000000  0.3333333000000 1.0
A      1  0.2298200000000  0.5234600000000  0.3333333000000 1.0
A      1  0.6744600000000  0.2923700000000  0.3333333000000 1.0
A      1  0.5472700000000  0.2329500000000  0.3333333000000 1.0
A      1  0.7222600000000  0.3446000000000  0.3333333000000 1.0
A      1  0.7701800000000  0.4765400000000  0.3333333000000 1.0
A      1  0.7585900000000  0.5817200000000  0.8333333000000 1.0
A      1  0.7286300000000  0.6458700000000  0.8333333000000 1.0
A      1  0.6250600000000  0.7406400000000  0.8333333000000 1.0
A      1  0.5585200000000  0.7648100000000  0.8333333000000 1.0
A      1  0.2414100000000  0.4182800000000  0.8333333000000 1.0
A      1  0.2713700000000  0.3541300000000  0.8333333000000 1.0
A      1  0.3749400000000  0.2593600000000  0.8333333000000 1.0
A      1  0.4414800000000  0.2351900000000  0.8333333000000 1.0
A      1  0.4182800000000  0.7585900000000  0.8333333000000 1.0
A      1  0.3541300000000  0.7286300000000  0.8333333000000 1.0
A      1  0.2593600000000  0.6250600000000  0.8333333000000 1.0
A      1  0.2351900000000  0.5585200000000  0.8333333000000 1.0
A      1  0.5817200000000  0.2414100000000  0.8333333000000 1.0
A      1  0.6458700000000  0.2713700000000  0.8333333000000 1.0
A      1  0.7406400000000  0.3749400000000  0.8333333000000 1.0
A      1  0.7648100000000  0.4414800000000  0.8333333000000 1.0
A      1  0.7076300000000  0.6744600000000  0.6666667000000 1.0
A      1  0.7670500000000  0.5472700000000  0.6666667000000 1.0
A      1  0.6554000000000  0.7222600000000  0.6666667000000 1.0
A      1  0.5234600000000  0.7701800000000  0.6666667000000 1.0
A      1  0.2923700000000  0.3255400000000  0.6666667000000 1.0
A      1  0.2329500000000  0.4527300000000  0.6666667000000 1.0
A      1  0.3446000000000  0.2777400000000  0.6666667000000 1.0
A      1  0.4765400000000  0.2298200000000  0.6666667000000 1.0
A      1  0.3255400000000  0.7076300000000  0.6666667000000 1.0
A      1  0.4527300000000  0.7670500000000  0.6666667000000 1.0
A      1  0.2777400000000  0.6554000000000  0.6666667000000 1.0
A      1  0.2298200000000  0.5234600000000  0.6666667000000 1.0
A      1  0.6744600000000  0.2923700000000  0.6666667000000 1.0
A      1  0.5472700000000  0.2329500000000  0.6666667000000 1.0
A      1  0.7222600000000  0.3446000000000  0.6666667000000 1.0
A      1  0.7701800000000  0.4765400000000  0.6666667000000 1.0
END
