TITL ABC-78-8314-485 0.0000008766 14.7135487046 -16.7109321769 0 0  2 (Fm-3m) n - 1
REM
REM Run started: at Fri Oct 6 14:26:09 BST 2023 in /home/michal/install/eddp/airss/examples/1.10
REM pp3 from code version ## 0.9.3 July 2022 commit b0220bf5cbf550a3b7
REM
REM
REM
REM Total runtime: s
REM
REM
REM ./ABC.cell (e32783a7be585090ebb5c77828425f51)
REM ## AIRSS Version 0.9.3 July 2022 commit b0220bf5cbf550a3b7
REM compiler GCC version 11.4.0
REM options -cpp -imultiarch x86_64-linux-gnu -mtune=generic -march=x86-64 -g -Og -fpre-include=/usr/include/finclude/math-vector-fortran.h
REM cmdline: airss.pl -pp3 -max 1000 -seed ABC 
REM seed 932506658 1317882267 -878028115 1449580749 -1531422633 1028302675 -1897053237 -398238979
REM
REM ABC.pp (b4a81987505b5d62180816d9c6bc34eb)
REM 
CELL 1.54180    2.18307    2.18307    3.08733   89.99999   90.00000   90.00000
LATT -1
SFAC A  
A      1  0.5276605372359  0.3454501094344  0.5662177174745 1.0
A      1  0.0276604627641  0.8454501905656  0.0662176825255 1.0
END
