TITL ABC-78-8314-110 -0.0000002682 35.3106382027 -57.8532029069 0 0  7 (Imm2) n - 1
REM
REM Run started: at Fri Oct 6 14:18:56 BST 2023 in /home/michal/install/eddp/airss/examples/1.10
REM pp3 from code version ## 0.9.3 July 2022 commit b0220bf5cbf550a3b7
REM
REM
REM
REM Total runtime: s
REM
REM
REM ./ABC.cell (e32783a7be585090ebb5c77828425f51)
REM ## AIRSS Version 0.9.3 July 2022 commit b0220bf5cbf550a3b7
REM compiler GCC version 11.4.0
REM options -cpp -imultiarch x86_64-linux-gnu -mtune=generic -march=x86-64 -g -Og -fpre-include=/usr/include/finclude/math-vector-fortran.h
REM cmdline: airss.pl -pp3 -max 1000 -seed ABC 
REM seed 1037602034 833818434 -1291008965 1636821465 1940162510 732657751 887788736 1535440662
REM
REM ABC.pp (b4a81987505b5d62180816d9c6bc34eb)
REM 
CELL 1.54180    2.10844    4.26947    4.26947  104.77883  104.29537   75.70463
LATT -1
SFAC A  B  
A      1  0.1235975448406  0.6774718102538  0.6407227072857 1.0
A      1  0.3944075143760  0.6397548506839  0.1446259570747 1.0
A      1  0.3944075182181  0.1735684964688  0.6784396105361 1.0
B      2  0.6667304335515  0.8922341691759  0.9417509047992 1.0
B      2  0.8614909520070  0.9395782419663  0.3786162105486 1.0
B      2  0.0116232249557  0.2894459263711  0.0287485122766 1.0
B      2  0.6667304120510  0.3764436050802  0.4259602974790 1.0
END
