TITL ABC-78-8314-774 0.0000004942 49.5940445667 -69.4204980025 0 0  8 (Cm) n - 1
REM
REM Run started: at Fri Oct 6 14:31:51 BST 2023 in /home/michal/install/eddp/airss/examples/1.10
REM pp3 from code version ## 0.9.3 July 2022 commit b0220bf5cbf550a3b7
REM
REM
REM
REM Total runtime: s
REM
REM
REM ./ABC.cell (e32783a7be585090ebb5c77828425f51)
REM ## AIRSS Version 0.9.3 July 2022 commit b0220bf5cbf550a3b7
REM compiler GCC version 11.4.0
REM options -cpp -imultiarch x86_64-linux-gnu -mtune=generic -march=x86-64 -g -Og -fpre-include=/usr/include/finclude/math-vector-fortran.h
REM cmdline: airss.pl -pp3 -max 1000 -seed ABC 
REM seed -1311344936 -1004719303 1161839219 -185019215 580975215 -1067841370 895411267 -589960962
REM
REM ABC.pp (b4a81987505b5d62180816d9c6bc34eb)
REM 
CELL 1.54180    2.99808    3.70312    5.20884  108.49956   90.00000   66.12114
LATT -1
SFAC A  B  C  
A      1 -0.8480115422060  0.9332487870976  0.1892898239322 1.0
A      1 -0.1631006300906  0.5634269229292  0.4704274092520 1.0
A      1 -0.1151030313712  0.4674317528517  0.0521773185814 1.0
A      1  0.0989524241796  0.0393208410046  0.6205019921755 1.0
A      1  0.3576304476223  0.5219647843235  0.7663713554461 1.0
A      1 -0.3812923712520  0.9998104298655  0.9135124638171 1.0
B      2  0.3998925416727  0.4374405941664  0.2433053552134 1.0
C      3  0.5611555614452  0.1149145877615  0.4120459815823 1.0
END
