TITL ABC-78-8314-696 -0.0000000013 7.0035071875 -12.9497391616 0 0  2 (Pm-3m) n - 1
REM
REM Run started: at Fri Oct 6 14:30:18 BST 2023 in /home/michal/install/eddp/airss/examples/1.10
REM pp3 from code version ## 0.9.3 July 2022 commit b0220bf5cbf550a3b7
REM
REM
REM
REM Total runtime: s
REM
REM
REM ./ABC.cell (e32783a7be585090ebb5c77828425f51)
REM ## AIRSS Version 0.9.3 July 2022 commit b0220bf5cbf550a3b7
REM compiler GCC version 11.4.0
REM options -cpp -imultiarch x86_64-linux-gnu -mtune=generic -march=x86-64 -g -Og -fpre-include=/usr/include/finclude/math-vector-fortran.h
REM cmdline: airss.pl -pp3 -max 1000 -seed ABC 
REM seed 331478643 -838877928 1999204341 1068088769 679764724 -960115945 -399174952 -1371279340
REM
REM ABC.pp (b4a81987505b5d62180816d9c6bc34eb)
REM 
CELL 1.54180    1.91325    1.91325    1.91325   90.00002   90.00001   89.99998
LATT -1
SFAC B  C  
B      1  0.6749219248416  0.1705782372679  0.5451076143300 1.0
C      2  0.1749219751584  0.6705781627321  0.0451075856700 1.0
END
