TITL ABC-78-8314-766 -0.0000018596 17.6974313703 -42.5528022459 0 0  4 (Pm-3m) n - 1
REM
REM Run started: at Fri Oct 6 14:31:41 BST 2023 in /home/michal/install/eddp/airss/examples/1.10
REM pp3 from code version ## 0.9.3 July 2022 commit b0220bf5cbf550a3b7
REM
REM
REM
REM Total runtime: s
REM
REM
REM ./ABC.cell (e32783a7be585090ebb5c77828425f51)
REM ## AIRSS Version 0.9.3 July 2022 commit b0220bf5cbf550a3b7
REM compiler GCC version 11.4.0
REM options -cpp -imultiarch x86_64-linux-gnu -mtune=generic -march=x86-64 -g -Og -fpre-include=/usr/include/finclude/math-vector-fortran.h
REM cmdline: airss.pl -pp3 -max 1000 -seed ABC 
REM seed -1904372537 722713781 486431636 943146105 -1009484329 -1624577658 1938168639 -1906606763
REM
REM ABC.pp (b4a81987505b5d62180816d9c6bc34eb)
REM 
CELL 1.54180    2.06836    2.92511    2.92511   90.00000   90.00005   90.00000
LATT -1
SFAC A  B  
A      1  0.3296446053170  0.0186161751617  0.6770901486955 1.0
A      1  0.3296446399984  0.5186161768443  0.1770901475828 1.0
B      2  0.8296446304909  0.0186161736607  0.1770901466920 1.0
B      2  0.8296446241937  0.5186161743333  0.6770901570296 1.0
END
