TITL ABC-23792-6234-142 0.0000004737 31.1948446474 -49.5154065295 0 0  6 (C2/m) n - 1
REM
REM Run started: at Mon Nov 6 13:35:05 GMT 2023 in /home/michal/install/eddp/airss/examples/1.10
REM pp3 from code version ## 0.9.3 July 2022 commit b0220bf5cbf550a3b7
REM
REM
REM
REM Total runtime: s
REM
REM
REM ./ABC.cell (e32783a7be585090ebb5c77828425f51)
REM ## AIRSS Version 0.9.3 July 2022 commit b0220bf5cbf550a3b7
REM compiler GCC version 11.4.0
REM options -cpp -imultiarch x86_64-linux-gnu -mtune=generic -march=x86-64 -g -Og -fpre-include=/usr/include/finclude/math-vector-fortran.h
REM cmdline: airss.pl -pp3 -max 1000 -seed ABC 
REM seed 1280406717 91634583 -852002173 -1527393640 1364823661 -1993068556 1230297364 -345450394
REM
REM ABC.pp (b4a81987505b5d62180816d9c6bc34eb)
REM 
CELL 1.54180    3.28461    3.82758    2.83147   90.00000  115.53240  102.42372
LATT -1
SFAC A  C  
A      1  0.3130338335323  0.8500230486993  0.2537012289241 1.0
A      1  0.6932446100076  0.2288743884481  0.9438066168826 1.0
C      2  0.0031392107833  0.5394487168885  0.5987539174694 1.0
C      2  0.6608951430927  0.7179669840758  0.9276318681390 1.0
C      2  0.0031392130371  0.0394487135176  0.5987539272967 1.0
C      2  0.3453832895470  0.3609304483707  0.2698759412882 1.0
END
