TITL ABC-78-8314-743 0.0000002079 19.2419670964 -24.7246755745 0 0  3 (Amm2) n - 1
REM
REM Run started: at Fri Oct 6 14:31:14 BST 2023 in /home/michal/install/eddp/airss/examples/1.10
REM pp3 from code version ## 0.9.3 July 2022 commit b0220bf5cbf550a3b7
REM
REM
REM
REM Total runtime: s
REM
REM
REM ./ABC.cell (e32783a7be585090ebb5c77828425f51)
REM ## AIRSS Version 0.9.3 July 2022 commit b0220bf5cbf550a3b7
REM compiler GCC version 11.4.0
REM options -cpp -imultiarch x86_64-linux-gnu -mtune=generic -march=x86-64 -g -Og -fpre-include=/usr/include/finclude/math-vector-fortran.h
REM cmdline: airss.pl -pp3 -max 1000 -seed ABC 
REM seed 102649594 613473254 -518143548 1860608869 -722075484 -1050101165 1980618650 -1373903231
REM
REM ABC.pp (b4a81987505b5d62180816d9c6bc34eb)
REM 
CELL 1.54180    2.13732    2.91023    3.41866  115.19113   89.99912   90.00000
LATT -1
SFAC A  C  
A      1  0.3355075953176  0.4732436782000  0.6486811951657 1.0
A      1  0.8355154479485  0.7816238357725  0.2654414908092 1.0
C      2  0.3355273567339  0.1648666860274  0.0319273140251 1.0
END
