TITL ABC-78-8314-15 -0.0000023045 15.0403083350 -12.5331991327 0 0  3 (Fm-3m) n - 1
REM
REM Run started: at Fri Oct 6 14:17:13 BST 2023 in /home/michal/install/eddp/airss/examples/1.10
REM pp3 from code version ## 0.9.3 July 2022 commit b0220bf5cbf550a3b7
REM
REM
REM
REM Total runtime: s
REM
REM
REM ./ABC.cell (e32783a7be585090ebb5c77828425f51)
REM ## AIRSS Version 0.9.3 July 2022 commit b0220bf5cbf550a3b7
REM compiler GCC version 11.4.0
REM options -cpp -imultiarch x86_64-linux-gnu -mtune=generic -march=x86-64 -g -Og -fpre-include=/usr/include/finclude/math-vector-fortran.h
REM cmdline: airss.pl -pp3 -max 1000 -seed ABC 
REM seed 546186387 -1701913965 277769987 1407085374 -1776293131 1688787634 -142867083 -1406130277
REM
REM ABC.pp (b4a81987505b5d62180816d9c6bc34eb)
REM 
CELL 1.54180    1.92110    1.92110    4.29571  102.92097  102.92097   90.00000
LATT -1
SFAC B  
B      1  0.9866832334097  0.5015447000720  0.5114091667905 1.0
B      1  0.6533499002099  0.1682113666336  0.8447424998959 1.0
B      1  0.3200165663803  0.8348780332943  0.1780758333136 1.0
END
