TITL ABC-78-8314-257 -0.0000000624 13.1924121467 -15.7515854489 0 0  3 (R3m) n - 1
REM
REM Run started: at Fri Oct 6 14:21:42 BST 2023 in /home/michal/install/eddp/airss/examples/1.10
REM pp3 from code version ## 0.9.3 July 2022 commit b0220bf5cbf550a3b7
REM
REM
REM
REM Total runtime: s
REM
REM
REM ./ABC.cell (e32783a7be585090ebb5c77828425f51)
REM ## AIRSS Version 0.9.3 July 2022 commit b0220bf5cbf550a3b7
REM compiler GCC version 11.4.0
REM options -cpp -imultiarch x86_64-linux-gnu -mtune=generic -march=x86-64 -g -Og -fpre-include=/usr/include/finclude/math-vector-fortran.h
REM cmdline: airss.pl -pp3 -max 1000 -seed ABC 
REM seed -274284264 671376520 -1336872142 775493015 -1350531545 -817251706 -474513769 -413534209
REM
REM ABC.pp (b4a81987505b5d62180816d9c6bc34eb)
REM 
CELL 1.54180    1.96765    1.96765    4.09530  103.90025   90.00000  120.00000
LATT -1
SFAC B  C  
B      1  0.6790889920114  1.1790099842319  0.5012635794266 1.0
C      2  0.4447700357979  0.7103721219951  0.7983068473282 1.0
C      2  0.2467542721907  0.3143405937730  0.2042594732452 1.0
END
