TITL ABC-10487-7284-1 -0.0000001314 12.9839281339 -27.1826542805 0 0  3 (I4mm) n - 1
REM
REM Run started: at Mon Nov 6 13:30:04 GMT 2023 in /home/michal/install/eddp/airss/examples/1.10
REM pp3 from code version ## 0.9.3 July 2022 commit b0220bf5cbf550a3b7
REM
REM
REM
REM Total runtime: s
REM
REM
REM ./ABC.cell (e32783a7be585090ebb5c77828425f51)
REM ## AIRSS Version 0.9.3 July 2022 commit b0220bf5cbf550a3b7
REM compiler GCC version 11.4.0
REM options -cpp -imultiarch x86_64-linux-gnu -mtune=generic -march=x86-64 -g -Og -fpre-include=/usr/include/finclude/math-vector-fortran.h
REM cmdline: airss.pl -pp3 -max 1000 -seed ABC 
REM seed -765488579 460789225 -409441054 1904479304 -1666236011 1930430743 2124386437 -1975681301
REM
REM ABC.pp (b4a81987505b5d62180816d9c6bc34eb)
REM 
CELL 1.54180    2.08382    3.33345    2.08382   71.78633   90.00000   71.78632
LATT -1
SFAC A  B  C  
A      1  0.8494982644261  0.0888586058323  0.8402547269128 1.0
B      2  0.1725452278253  0.4427646779099  0.1633016969021 1.0
C      3  0.5448827077486  0.6980897162578  0.5356391761851 1.0
END
