TITL ABC-78-8314-833 0.0000002164 36.7880891526 -47.0538683671 0 0  8 (P-1) n - 1
REM
REM Run started: at Fri Oct 6 14:32:57 BST 2023 in /home/michal/install/eddp/airss/examples/1.10
REM pp3 from code version ## 0.9.3 July 2022 commit b0220bf5cbf550a3b7
REM
REM
REM
REM Total runtime: s
REM
REM
REM ./ABC.cell (e32783a7be585090ebb5c77828425f51)
REM ## AIRSS Version 0.9.3 July 2022 commit b0220bf5cbf550a3b7
REM compiler GCC version 11.4.0
REM options -cpp -imultiarch x86_64-linux-gnu -mtune=generic -march=x86-64 -g -Og -fpre-include=/usr/include/finclude/math-vector-fortran.h
REM cmdline: airss.pl -pp3 -max 1000 -seed ABC 
REM seed -1184335361 390943703 -1310570852 1705442918 1980878645 2124131922 1783292361 -251883091
REM
REM ABC.pp (b4a81987505b5d62180816d9c6bc34eb)
REM 
CELL 1.54180    3.23072    3.22914    3.74348   89.98252  106.86727   99.71910
LATT -1
SFAC A  B  
A      1  0.5952134835205  0.6625124507735  0.0514304975885 1.0
B      2  0.0960340188189  0.4189072999228  0.1740828185908 1.0
B      2  0.5952134798737  0.6625124490019  0.5514304945646 1.0
B      2  0.5962250520534  0.1599114986137  0.8071921972157 1.0
B      2  0.1040913411873  0.4141815696481  0.6822488465337 1.0
B      2  0.0943929571011  0.9061176047729  0.9287781808677 1.0
B      2  0.0863356361554  0.9108433282723  0.4206121561518 1.0
B      2  0.5942019312898  0.1651133989947  0.2956688084873 1.0
END
