TITL ABC-78-8314-48 -0.0000057735 34.9872635386 -58.5009461056 0 0  7 (Pm) n - 1
REM
REM Run started: at Fri Oct 6 14:17:47 BST 2023 in /home/michal/install/eddp/airss/examples/1.10
REM pp3 from code version ## 0.9.3 July 2022 commit b0220bf5cbf550a3b7
REM
REM
REM
REM Total runtime: s
REM
REM
REM ./ABC.cell (e32783a7be585090ebb5c77828425f51)
REM ## AIRSS Version 0.9.3 July 2022 commit b0220bf5cbf550a3b7
REM compiler GCC version 11.4.0
REM options -cpp -imultiarch x86_64-linux-gnu -mtune=generic -march=x86-64 -g -Og -fpre-include=/usr/include/finclude/math-vector-fortran.h
REM cmdline: airss.pl -pp3 -max 1000 -seed ABC 
REM seed 1859475472 -549345440 -253010784 -1559586896 -1996653988 -645587670 2099153586 2079606776
REM
REM ABC.pp (b4a81987505b5d62180816d9c6bc34eb)
REM 
CELL 1.54180    2.17314    4.00479    4.40503   65.87062   90.00000   90.00000
LATT -1
SFAC A  B  C  
A      1  0.9759112553113  0.8792837464826  0.4829347629418 1.0
A      1  0.9759112626993  0.5921587462752  0.1672396822839 1.0
A      1  0.4759112664081  0.0520253925696  0.8219251800233 1.0
B      2  0.9759112553210  0.4184414789540  0.6103126821782 1.0
B      2  0.4759112545638  0.2396989419061  0.3816831876451 1.0
B      2  0.9759112514073  0.1915125742749  0.0634439372717 1.0
C      3  0.4759112542893  0.5296811195375  0.8367001676560 1.0
END
