TITL ABC-78-8314-18 0.0000001889 8.8487151221 -21.2764011230 0 0  2 (Pm-3m) n - 1
REM
REM Run started: at Fri Oct 6 14:17:16 BST 2023 in /home/michal/install/eddp/airss/examples/1.10
REM pp3 from code version ## 0.9.3 July 2022 commit b0220bf5cbf550a3b7
REM
REM
REM
REM Total runtime: s
REM
REM
REM ./ABC.cell (e32783a7be585090ebb5c77828425f51)
REM ## AIRSS Version 0.9.3 July 2022 commit b0220bf5cbf550a3b7
REM compiler GCC version 11.4.0
REM options -cpp -imultiarch x86_64-linux-gnu -mtune=generic -march=x86-64 -g -Og -fpre-include=/usr/include/finclude/math-vector-fortran.h
REM cmdline: airss.pl -pp3 -max 1000 -seed ABC 
REM seed 1081548444 -2122436297 -687618228 -1934901890 -379145058 -815948172 991731391 1925739660
REM
REM ABC.pp (b4a81987505b5d62180816d9c6bc34eb)
REM 
CELL 1.54180    2.06836    2.06836    2.06836   90.00000   90.00000   90.00000
LATT -1
SFAC A  B  
A      1  0.7173550527874  0.6470115510759  0.7806692459510 1.0
B      2  0.2173550472126  0.1470115489241  0.2806692540490 1.0
END
