TITL ABC-78-8314-952 -0.0000000014 31.8370844229 -57.1432362025 0 0  6 (Pm-3m) n - 1
REM
REM Run started: at Fri Oct 6 14:35:18 BST 2023 in /home/michal/install/eddp/airss/examples/1.10
REM pp3 from code version ## 0.9.3 July 2022 commit b0220bf5cbf550a3b7
REM
REM
REM
REM Total runtime: s
REM
REM
REM ./ABC.cell (e32783a7be585090ebb5c77828425f51)
REM ## AIRSS Version 0.9.3 July 2022 commit b0220bf5cbf550a3b7
REM compiler GCC version 11.4.0
REM options -cpp -imultiarch x86_64-linux-gnu -mtune=generic -march=x86-64 -g -Og -fpre-include=/usr/include/finclude/math-vector-fortran.h
REM cmdline: airss.pl -pp3 -max 1000 -seed ABC 
REM seed 239182643 -1832862468 -1329191382 1202279115 2144828604 876330401 634243763 672492325
REM
REM ABC.pp (b4a81987505b5d62180816d9c6bc34eb)
REM 
CELL 1.54180    2.19754    2.19755    6.59262   90.00000   90.00000   90.00000
LATT -1
SFAC A  C  
A      1  0.7925606994587  0.0931449602924  0.1457923498787 1.0
A      1  0.7925606994406  0.0931449602915  0.8124590172837 1.0
A      1  0.7925606994236  0.0931449602973  0.4791256827220 1.0
C      2  0.2925607005395  0.5931449397069  0.9791256842499 1.0
C      2  0.2925607005623  0.5931449397106  0.3124590156020 1.0
C      2  0.2925607005753  0.5931449397013  0.6457923502637 1.0
END
