TITL ABC-78-8314-98 0.0000000262 32.1963680097 -58.0079709675 0 0  6 (I4/mmm) n - 1
REM
REM Run started: at Fri Oct 6 14:18:41 BST 2023 in /home/michal/install/eddp/airss/examples/1.10
REM pp3 from code version ## 0.9.3 July 2022 commit b0220bf5cbf550a3b7
REM
REM
REM
REM Total runtime: s
REM
REM
REM ./ABC.cell (e32783a7be585090ebb5c77828425f51)
REM ## AIRSS Version 0.9.3 July 2022 commit b0220bf5cbf550a3b7
REM compiler GCC version 11.4.0
REM options -cpp -imultiarch x86_64-linux-gnu -mtune=generic -march=x86-64 -g -Og -fpre-include=/usr/include/finclude/math-vector-fortran.h
REM cmdline: airss.pl -pp3 -max 1000 -seed ABC 
REM seed 1536005809 658676544 1264813469 -1997893317 -972198911 1869749626 1906128654 -1201901498
REM
REM ABC.pp (b4a81987505b5d62180816d9c6bc34eb)
REM 
CELL 1.54180    2.10252    2.10252    7.28330   89.99998   90.00000   90.00000
LATT -1
SFAC A  B  
A      1  0.4474913833636  0.7918169969645  0.4894211280669 1.0
A      1  0.9474913833582  0.2918170009114  0.9894211282024 1.0
A      1  0.4474913833062  0.7918170371641  0.7727215390552 1.0
A      1  0.9474913833052  0.2918170321875  0.2727215391908 1.0
B      2  0.9474913833315  0.2918170166614  0.6310713325614 1.0
B      2  0.4474913833352  0.7918170161111  0.1310713329233 1.0
END
