TITL ABC-78-8314-725 0.0000001384 21.9350293958 -23.8829949079 0 0  5 (Cm) n - 1
REM
REM Run started: at Fri Oct 6 14:30:54 BST 2023 in /home/michal/install/eddp/airss/examples/1.10
REM pp3 from code version ## 0.9.3 July 2022 commit b0220bf5cbf550a3b7
REM
REM
REM
REM Total runtime: s
REM
REM
REM ./ABC.cell (e32783a7be585090ebb5c77828425f51)
REM ## AIRSS Version 0.9.3 July 2022 commit b0220bf5cbf550a3b7
REM compiler GCC version 11.4.0
REM options -cpp -imultiarch x86_64-linux-gnu -mtune=generic -march=x86-64 -g -Og -fpre-include=/usr/include/finclude/math-vector-fortran.h
REM cmdline: airss.pl -pp3 -max 1000 -seed ABC 
REM seed -508669675 198496773 -315554684 -349521476 -911420151 1631122699 460307042 -801764817
REM
REM ABC.pp (b4a81987505b5d62180816d9c6bc34eb)
REM 
CELL 1.54180    1.93291    3.04339    4.05588  103.43053   89.99839  108.51513
LATT -1
SFAC B  C  
B      1  0.3503329128082  0.4751472906888  0.7077218130434 1.0
B      1  0.0265130884704  0.8274764762403  0.4462510964671 1.0
B      1  0.7075752365492  0.1896456095067  0.1802032191774 1.0
C      2  0.6382556880852  0.0509999107817  0.7656604741052 1.0
C      2  0.9610069740870  0.6965313127825  0.0424529972069 1.0
END
