TITL ABC-78-8314-41 -0.0000003403 25.9805055457 -29.5628764821 0 0  6 (Pmmn) n - 1
REM
REM Run started: at Fri Oct 6 14:17:40 BST 2023 in /home/michal/install/eddp/airss/examples/1.10
REM pp3 from code version ## 0.9.3 July 2022 commit b0220bf5cbf550a3b7
REM
REM
REM
REM Total runtime: s
REM
REM
REM ./ABC.cell (e32783a7be585090ebb5c77828425f51)
REM ## AIRSS Version 0.9.3 July 2022 commit b0220bf5cbf550a3b7
REM compiler GCC version 11.4.0
REM options -cpp -imultiarch x86_64-linux-gnu -mtune=generic -march=x86-64 -g -Og -fpre-include=/usr/include/finclude/math-vector-fortran.h
REM cmdline: airss.pl -pp3 -max 1000 -seed ABC 
REM seed -78390151 1960003023 -1541168571 -1897185809 735555781 1698237385 734519150 1612841868
REM
REM ABC.pp (b4a81987505b5d62180816d9c6bc34eb)
REM 
CELL 1.54180    1.98764    2.39145    5.46572   90.00000   90.00000   90.00000
LATT -1
SFAC B  C  
B      1  0.3565617383700  0.3243707883551  0.0343360493867 1.0
B      1  0.8565617308409  0.8243707783129  0.6380034172876 1.0
B      1  0.3565617733238  0.3243707898323  0.4317097167759 1.0
B      1  0.8565616928706  0.8243707768341  0.2406297498669 1.0
C      2  0.3565617202727  0.3243707871474  0.7292548026173 1.0
C      2  0.8565617443220  0.8243707795182  0.9430846640656 1.0
END
