TITL ABC-78-8314-467 -0.0000001440 12.7593165483 -14.5937236426 0 0  3 (Amm2) n - 1
REM
REM Run started: at Fri Oct 6 14:25:48 BST 2023 in /home/michal/install/eddp/airss/examples/1.10
REM pp3 from code version ## 0.9.3 July 2022 commit b0220bf5cbf550a3b7
REM
REM
REM
REM Total runtime: s
REM
REM
REM ./ABC.cell (e32783a7be585090ebb5c77828425f51)
REM ## AIRSS Version 0.9.3 July 2022 commit b0220bf5cbf550a3b7
REM compiler GCC version 11.4.0
REM options -cpp -imultiarch x86_64-linux-gnu -mtune=generic -march=x86-64 -g -Og -fpre-include=/usr/include/finclude/math-vector-fortran.h
REM cmdline: airss.pl -pp3 -max 1000 -seed ABC 
REM seed 573876142 -480647604 -1029299141 -1724580735 -2005994332 -879007549 -1279312275 -872967402
REM
REM ABC.pp (b4a81987505b5d62180816d9c6bc34eb)
REM 
CELL 1.54180    1.95650    3.00106    2.36420  113.19698   90.00000   89.99986
LATT -1
SFAC B  C  
B      1  0.3875274491080  0.8469384187579  0.6342790753602 1.0
B      1  0.8875261824293  0.2440926489160  0.3328561883065 1.0
C      2  0.3875249684627  0.4493859323260  0.9355028363334 1.0
END
