TITL ABC-78-8314-730 0.0000002951 42.9047098205 -40.1062372245 0 0  8 (Fm-3m) n - 1
REM
REM Run started: at Fri Oct 6 14:31:00 BST 2023 in /home/michal/install/eddp/airss/examples/1.10
REM pp3 from code version ## 0.9.3 July 2022 commit b0220bf5cbf550a3b7
REM
REM
REM
REM Total runtime: s
REM
REM
REM ./ABC.cell (e32783a7be585090ebb5c77828425f51)
REM ## AIRSS Version 0.9.3 July 2022 commit b0220bf5cbf550a3b7
REM compiler GCC version 11.4.0
REM options -cpp -imultiarch x86_64-linux-gnu -mtune=generic -march=x86-64 -g -Og -fpre-include=/usr/include/finclude/math-vector-fortran.h
REM cmdline: airss.pl -pp3 -max 1000 -seed ABC 
REM seed -1305735748 -2029001034 -1132872499 -942803478 724831382 -1783066174 -1116295686 -1449318954
REM
REM ABC.pp (b4a81987505b5d62180816d9c6bc34eb)
REM 
CELL 1.54180    3.40307    3.40307    3.92952   73.22131   90.00003   99.59405
LATT -1
SFAC C  
C      1  0.7406864126787  0.6618926381505  0.0906429753494 1.0
C      1  0.4906864122177  0.1618926371166  0.9656429751938 1.0
C      1  0.9906864123203  0.1618926368661  0.2156429746612 1.0
C      1  0.9906864121902  0.1618926366896  0.7156429749929 1.0
C      1  0.2406864124852  0.6618926374650  0.8406429757563 1.0
C      1  0.4906864125133  0.1618926375134  0.4656429742419 1.0
C      1  0.2406864127767  0.6618926378581  0.3406429748178 1.0
C      1  0.7406864128180  0.6618926383406  0.5906429749866 1.0
END
