TITL ABC-78-8314-207 0.0000002074 17.8076643520 -17.8201397876 0 0  4 (Amm2) n - 1
REM
REM Run started: at Fri Oct 6 14:20:45 BST 2023 in /home/michal/install/eddp/airss/examples/1.10
REM pp3 from code version ## 0.9.3 July 2022 commit b0220bf5cbf550a3b7
REM
REM
REM
REM Total runtime: s
REM
REM
REM ./ABC.cell (e32783a7be585090ebb5c77828425f51)
REM ## AIRSS Version 0.9.3 July 2022 commit b0220bf5cbf550a3b7
REM compiler GCC version 11.4.0
REM options -cpp -imultiarch x86_64-linux-gnu -mtune=generic -march=x86-64 -g -Og -fpre-include=/usr/include/finclude/math-vector-fortran.h
REM cmdline: airss.pl -pp3 -max 1000 -seed ABC 
REM seed 972497895 1140279358 -1440854816 1405413067 1941366204 2050694324 -280981388 646603852
REM
REM ABC.pp (b4a81987505b5d62180816d9c6bc34eb)
REM 
CELL 1.54180    1.96364    3.05512    3.05512  103.68753   90.00025   90.00025
LATT -1
SFAC B  C  
B      1  0.5179073009382  0.5002317330109  0.5151662480334 1.0
B      1  0.0179087618473  0.6200090189053  0.0456956969020 1.0
B      1  0.0179087617245  0.0307611627348  0.6349435341149 1.0
C      2  0.5179132754900  0.0718783853490  0.0868130209496 1.0
END
