TITL ABC-23792-6234-118 0.0000003938 43.9584537222 -67.1205987037 0 0  8 (Cm) n - 1
REM
REM Run started: at Mon Nov 6 13:34:41 GMT 2023 in /home/michal/install/eddp/airss/examples/1.10
REM pp3 from code version ## 0.9.3 July 2022 commit b0220bf5cbf550a3b7
REM
REM
REM
REM Total runtime: s
REM
REM
REM ./ABC.cell (e32783a7be585090ebb5c77828425f51)
REM ## AIRSS Version 0.9.3 July 2022 commit b0220bf5cbf550a3b7
REM compiler GCC version 11.4.0
REM options -cpp -imultiarch x86_64-linux-gnu -mtune=generic -march=x86-64 -g -Og -fpre-include=/usr/include/finclude/math-vector-fortran.h
REM cmdline: airss.pl -pp3 -max 1000 -seed ABC 
REM seed 1710029377 -1422901484 -812504514 1404269126 1640934621 -820521105 1870143679 330686522
REM
REM ABC.pp (b4a81987505b5d62180816d9c6bc34eb)
REM 
CELL 1.54180    2.12185    4.69469    4.72790   97.03136   77.03262   76.93928
LATT -1
SFAC A  B  C  
A      1  0.2361122023233  0.4240809978330  0.1742646828790 1.0
A      1  0.8869530001368  0.8165413173464  0.4801228043082 1.0
A      1  0.9715308556471  0.0172277806634  0.1102805793847 1.0
A      1  0.8988582525403  0.4924399263324  0.7804136827124 1.0
B      2  0.5978266626183  0.7239400375068  0.1509767163262 1.0
B      2  0.2496006991856  0.7981675637998  0.7732011867411 1.0
C      3  0.2247066547282  0.1653505035317  0.4558062903315 1.0
C      3  0.5638482728206  0.1354669729865  0.8074065573167 1.0
END
