TITL ABC-78-8314-199 -0.0000001082 25.6299631916 -54.8564425939 0 0  6 (Cm) n - 1
REM
REM Run started: at Fri Oct 6 14:20:34 BST 2023 in /home/michal/install/eddp/airss/examples/1.10
REM pp3 from code version ## 0.9.3 July 2022 commit b0220bf5cbf550a3b7
REM
REM
REM
REM Total runtime: s
REM
REM
REM ./ABC.cell (e32783a7be585090ebb5c77828425f51)
REM ## AIRSS Version 0.9.3 July 2022 commit b0220bf5cbf550a3b7
REM compiler GCC version 11.4.0
REM options -cpp -imultiarch x86_64-linux-gnu -mtune=generic -march=x86-64 -g -Og -fpre-include=/usr/include/finclude/math-vector-fortran.h
REM cmdline: airss.pl -pp3 -max 1000 -seed ABC 
REM seed -1593423942 -90972506 1070032275 953122934 -1962435672 -117574626 665652919 321589370
REM
REM ABC.pp (b4a81987505b5d62180816d9c6bc34eb)
REM 
CELL 1.54180    2.13323    3.18999    4.28327   70.17678   90.00000  109.53374
LATT -1
SFAC A  B  C  
A      1  1.2273071586190  0.8928512172383  0.0494333813658 1.0
A      1  1.1704936685877  0.7792242371749  0.5918763241946 1.0
B      2  0.8611155434371  0.1604679868727  0.7083758326695 1.0
B      2  0.5314026158901  0.5010421317789  0.9385513137084 1.0
B      2  0.5547846023988  0.5478061048016  0.3669165311395 1.0
C      3  0.8940956110672  0.2264281221336  0.2585822169221 1.0
END
