TITL ABC-78-8314-191 0.0000002577 12.9064670940 -26.8939752412 0 0  3 (I4/mmm) n - 1
REM
REM Run started: at Fri Oct 6 14:20:26 BST 2023 in /home/michal/install/eddp/airss/examples/1.10
REM pp3 from code version ## 0.9.3 July 2022 commit b0220bf5cbf550a3b7
REM
REM
REM
REM Total runtime: s
REM
REM
REM ./ABC.cell (e32783a7be585090ebb5c77828425f51)
REM ## AIRSS Version 0.9.3 July 2022 commit b0220bf5cbf550a3b7
REM compiler GCC version 11.4.0
REM options -cpp -imultiarch x86_64-linux-gnu -mtune=generic -march=x86-64 -g -Og -fpre-include=/usr/include/finclude/math-vector-fortran.h
REM cmdline: airss.pl -pp3 -max 1000 -seed ABC 
REM seed 1664417648 -1972886918 1596741993 -1520783581 265450248 1693004942 -1906016801 -305047025
REM
REM ABC.pp (b4a81987505b5d62180816d9c6bc34eb)
REM 
CELL 1.54180    2.17761    2.17761    3.12712   69.62385   69.62389   90.00000
LATT -1
SFAC A  B  
A      1  0.9462192666671  0.8853691000006  0.2921361999988 1.0
B      2  0.6093776913999  0.5485275247371  0.9658193505262 1.0
B      2  0.2830608419330  0.2222106752623  0.6184530494750 1.0
END
