TITL ABC-23792-6234-131 0.0000000006 15.6416063320 -24.6790045951 0 0  3 (Immm) n - 1
REM
REM Run started: at Mon Nov 6 13:34:54 GMT 2023 in /home/michal/install/eddp/airss/examples/1.10
REM pp3 from code version ## 0.9.3 July 2022 commit b0220bf5cbf550a3b7
REM
REM
REM
REM Total runtime: s
REM
REM
REM ./ABC.cell (e32783a7be585090ebb5c77828425f51)
REM ## AIRSS Version 0.9.3 July 2022 commit b0220bf5cbf550a3b7
REM compiler GCC version 11.4.0
REM options -cpp -imultiarch x86_64-linux-gnu -mtune=generic -march=x86-64 -g -Og -fpre-include=/usr/include/finclude/math-vector-fortran.h
REM cmdline: airss.pl -pp3 -max 1000 -seed ABC 
REM seed 2025246203 1655183313 -2052644995 2015020515 -849970762 -456420799 1962435746 1231314924
REM
REM ABC.pp (b4a81987505b5d62180816d9c6bc34eb)
REM 
CELL 1.54180    2.19113    2.43628    3.35704  111.27601  109.04733   90.00000
LATT -1
SFAC A  C  
A      1  0.6092896330444  0.9312635664492  0.0428668329088 1.0
C      2  0.9423251967093  0.2642991302065  0.7089379600020 1.0
C      2  0.2762540702463  0.5982280033443  0.3767957070892 1.0
END
