TITL ABC-78-8314-469 -0.0000001005 15.6416042576 -24.6790045887 0 0  3 (Immm) n - 1
REM
REM Run started: at Fri Oct 6 14:25:50 BST 2023 in /home/michal/install/eddp/airss/examples/1.10
REM pp3 from code version ## 0.9.3 July 2022 commit b0220bf5cbf550a3b7
REM
REM
REM
REM Total runtime: s
REM
REM
REM ./ABC.cell (e32783a7be585090ebb5c77828425f51)
REM ## AIRSS Version 0.9.3 July 2022 commit b0220bf5cbf550a3b7
REM compiler GCC version 11.4.0
REM options -cpp -imultiarch x86_64-linux-gnu -mtune=generic -march=x86-64 -g -Og -fpre-include=/usr/include/finclude/math-vector-fortran.h
REM cmdline: airss.pl -pp3 -max 1000 -seed ABC 
REM seed -294829574 232780920 -1165985201 1523813835 354480459 1619064361 -972144453 1440868738
REM
REM ABC.pp (b4a81987505b5d62180816d9c6bc34eb)
REM 
CELL 1.54180    2.19111    2.43632    3.35704  111.27639   70.95288   90.00000
LATT -1
SFAC A  C  
A      1  0.6017194348872  0.5080770660779  0.3187871674286 1.0
C      2 -0.7313161514174  1.8411127147789  0.9848584619211 1.0
C      2 -0.0652449834698  1.1750414191431  0.6527158706503 1.0
END
