TITL ABC-78-8314-625 0.0000000080 17.9411114988 -30.1670761103 0 0  4 (P4/mmm) n - 1
REM
REM Run started: at Fri Oct 6 14:28:51 BST 2023 in /home/michal/install/eddp/airss/examples/1.10
REM pp3 from code version ## 0.9.3 July 2022 commit b0220bf5cbf550a3b7
REM
REM
REM
REM Total runtime: s
REM
REM
REM ./ABC.cell (e32783a7be585090ebb5c77828425f51)
REM ## AIRSS Version 0.9.3 July 2022 commit b0220bf5cbf550a3b7
REM compiler GCC version 11.4.0
REM options -cpp -imultiarch x86_64-linux-gnu -mtune=generic -march=x86-64 -g -Og -fpre-include=/usr/include/finclude/math-vector-fortran.h
REM cmdline: airss.pl -pp3 -max 1000 -seed ABC 
REM seed -228822560 -1722088339 669258333 103379197 2022194407 1095431471 1778357916 1891379015
REM
REM ABC.pp (b4a81987505b5d62180816d9c6bc34eb)
REM 
CELL 1.54180    2.18544    2.18544    3.75639   90.00000   90.00000   90.00000
LATT -1
SFAC A  B  
A      1  0.0084334230501  0.0540740985782  0.3773902860799 1.0
B      2  0.5084334224488  0.5540741000439  0.6145856222832 1.0
B      2  0.5084334271920  0.5540740997097  0.1401949197729 1.0
B      2  0.0084334273091  0.0540741016682  0.8773902718640 1.0
END
