TITL ABC-78-8314-925 -0.0000001047 17.9261993815 -27.3283246877 0 0  3 (I4/mmm) n - 1
REM
REM Run started: at Fri Oct 6 14:34:48 BST 2023 in /home/michal/install/eddp/airss/examples/1.10
REM pp3 from code version ## 0.9.3 July 2022 commit b0220bf5cbf550a3b7
REM
REM
REM
REM Total runtime: s
REM
REM
REM ./ABC.cell (e32783a7be585090ebb5c77828425f51)
REM ## AIRSS Version 0.9.3 July 2022 commit b0220bf5cbf550a3b7
REM compiler GCC version 11.4.0
REM options -cpp -imultiarch x86_64-linux-gnu -mtune=generic -march=x86-64 -g -Og -fpre-include=/usr/include/finclude/math-vector-fortran.h
REM cmdline: airss.pl -pp3 -max 1000 -seed ABC 
REM seed -457332274 833030867 -661773517 569575542 2127332271 716390372 15729071 1891777260
REM
REM ABC.pp (b4a81987505b5d62180816d9c6bc34eb)
REM 
CELL 1.54180    2.19815    2.19815    4.02242   74.14299   74.14299   90.00000
LATT -1
SFAC A  C  
A      1  0.5411895404977  0.3517042041893  0.7379276268954 1.0
A      1  0.8387175922858  0.6492322622130  0.1428715068129 1.0
C      2  0.1899535672164  0.0004682335977  0.4403995662918 1.0
END
