TITL ABC-23792-6234-144 0.0000004861 36.1972277151 -51.9316054728 0 0  8 (P1) n - 1
REM
REM Run started: at Mon Nov 6 13:35:08 GMT 2023 in /home/michal/install/eddp/airss/examples/1.10
REM pp3 from code version ## 0.9.3 July 2022 commit b0220bf5cbf550a3b7
REM
REM
REM
REM Total runtime: s
REM
REM
REM ./ABC.cell (e32783a7be585090ebb5c77828425f51)
REM ## AIRSS Version 0.9.3 July 2022 commit b0220bf5cbf550a3b7
REM compiler GCC version 11.4.0
REM options -cpp -imultiarch x86_64-linux-gnu -mtune=generic -march=x86-64 -g -Og -fpre-include=/usr/include/finclude/math-vector-fortran.h
REM cmdline: airss.pl -pp3 -max 1000 -seed ABC 
REM seed -10751996 1135714478 -1859281615 -1120618743 1640987194 -724161792 -475803514 922753043
REM
REM ABC.pp (b4a81987505b5d62180816d9c6bc34eb)
REM 
CELL 1.54180    3.52413    3.49181    3.22341   65.87690   89.26761   90.19900
LATT -1
SFAC A  B  C  
A      1  0.9890816893644  0.1342825162548  0.8719984921275 1.0
B      2  0.8359854356868  0.6218097601075  0.9779793547232 1.0
B      2  0.3287693262683  0.9038007991313  0.6253224898464 1.0
C      3  0.9708003684036  0.7143880491479  0.4706369632528 1.0
C      3  0.4797431731800  0.8522202040828  0.1129506721788 1.0
C      3  0.6919733000272  0.1924989159042  0.3738961068857 1.0
C      3  0.1965829419510  0.3536224733663  0.2581561322871 1.0
C      3  0.4933888651187  0.4451092820051  0.7420773886985 1.0
END
