TITL ABC-78-8314-936 0.0000001299 37.2874165041 -50.2742848079 0 0  6 (Cm) n - 1
REM
REM Run started: at Fri Oct 6 14:35:00 BST 2023 in /home/michal/install/eddp/airss/examples/1.10
REM pp3 from code version ## 0.9.3 July 2022 commit b0220bf5cbf550a3b7
REM
REM
REM
REM Total runtime: s
REM
REM
REM ./ABC.cell (e32783a7be585090ebb5c77828425f51)
REM ## AIRSS Version 0.9.3 July 2022 commit b0220bf5cbf550a3b7
REM compiler GCC version 11.4.0
REM options -cpp -imultiarch x86_64-linux-gnu -mtune=generic -march=x86-64 -g -Og -fpre-include=/usr/include/finclude/math-vector-fortran.h
REM cmdline: airss.pl -pp3 -max 1000 -seed ABC 
REM seed -248618901 -1263395517 958492153 1681664984 -1420943788 -1314198038 136849009 -1051855800
REM
REM ABC.pp (b4a81987505b5d62180816d9c6bc34eb)
REM 
CELL 1.54180    2.20106    3.36381    5.58004   74.12846   78.62522   70.90308
LATT -1
SFAC A  B  C  
A      1  0.4248357586339  0.0350917536315  0.0839504822892 1.0
A      1  0.3000902322847  0.8410755897759  0.5274575371575 1.0
A      1  0.0876640287525  0.5050123541065  0.2883731737400 1.0
A      1  0.9462504882910  0.3165152372286  0.7596976794799 1.0
B      2  0.5872188762217  0.2710164417449  0.5232595417689 1.0
C      3  0.1852315158161  0.6859254235126  0.9123252855645 1.0
END
