TITL ABC-24937-8325-33 -0.0000009078 7.0035072129 -12.9497391618 0 0  2 (Pm-3m) n - 1
REM
REM Run started: at Mon Nov 6 13:19:41 GMT 2023 in /home/michal/install/eddp/airss/examples/1.10
REM pp3 from code version ## 0.9.3 July 2022 commit b0220bf5cbf550a3b7
REM
REM
REM
REM Total runtime: s
REM
REM
REM ./ABC.cell (e32783a7be585090ebb5c77828425f51)
REM ## AIRSS Version 0.9.3 July 2022 commit b0220bf5cbf550a3b7
REM compiler GCC version 11.4.0
REM options -cpp -imultiarch x86_64-linux-gnu -mtune=generic -march=x86-64 -g -Og -fpre-include=/usr/include/finclude/math-vector-fortran.h
REM cmdline: airss.pl -pp3 -max 1000 -seed ABC 
REM seed 1956515172 1803435842 1327233789 -959119032 541964548 -944242903 777946510 691672922
REM
REM ABC.pp (b4a81987505b5d62180816d9c6bc34eb)
REM 
CELL 1.54180    1.91325    1.91325    1.91325   90.00000   90.00000   90.00000
LATT -1
SFAC B  C  
B      1  0.5387191984524  0.3725553988228  0.3174391510214 1.0
C      2  0.0387192015476  0.8725554011772  0.8174391489786 1.0
END
