TITL ABC-24937-8325-63 -0.0000000848 34.0770324841 -38.1460025566 0 0  8 (P21/m) n - 1
REM
REM Run started: at Mon Nov 6 13:20:10 GMT 2023 in /home/michal/install/eddp/airss/examples/1.10
REM pp3 from code version ## 0.9.3 July 2022 commit b0220bf5cbf550a3b7
REM
REM
REM
REM Total runtime: s
REM
REM
REM ./ABC.cell (e32783a7be585090ebb5c77828425f51)
REM ## AIRSS Version 0.9.3 July 2022 commit b0220bf5cbf550a3b7
REM compiler GCC version 11.4.0
REM options -cpp -imultiarch x86_64-linux-gnu -mtune=generic -march=x86-64 -g -Og -fpre-include=/usr/include/finclude/math-vector-fortran.h
REM cmdline: airss.pl -pp3 -max 1000 -seed ABC 
REM seed 201031463 296386759 1321347936 -77991863 1633492147 487294779 416812957 1086274634
REM
REM ABC.pp (b4a81987505b5d62180816d9c6bc34eb)
REM 
CELL 1.54180    2.71991    3.61850    3.65819  108.82980   89.99982   89.99985
LATT -1
SFAC B  C  
B      1  0.7180099946770  0.6980370520888  0.6685349074762 1.0
B      1  0.2180083458488  0.0591181219368  0.8704621789031 1.0
B      1  0.7180110041082  0.4911937817175  0.0889764561698 1.0
B      1  0.2180093540380  0.8522748450038  0.2909037114887 1.0
B      1  0.2180104556655  0.3790255294408  0.3758659845257 1.0
B      1  0.7180088949317  0.1712863659733  0.5835726270611 1.0
C      2  0.7180079110553  0.0215373095864  0.1125566593132 1.0
C      2  0.2180114396755  0.5287745942526  0.8468819750624 1.0
END
