TITL ABC-78-8314-109 0.0000000067 29.7598967088 -17.1048697544 0 0  5 (Cmmm) n - 1
REM
REM Run started: at Fri Oct 6 14:18:55 BST 2023 in /home/michal/install/eddp/airss/examples/1.10
REM pp3 from code version ## 0.9.3 July 2022 commit b0220bf5cbf550a3b7
REM
REM
REM
REM Total runtime: s
REM
REM
REM ./ABC.cell (e32783a7be585090ebb5c77828425f51)
REM ## AIRSS Version 0.9.3 July 2022 commit b0220bf5cbf550a3b7
REM compiler GCC version 11.4.0
REM options -cpp -imultiarch x86_64-linux-gnu -mtune=generic -march=x86-64 -g -Og -fpre-include=/usr/include/finclude/math-vector-fortran.h
REM cmdline: airss.pl -pp3 -max 1000 -seed ABC 
REM seed 1251277149 -341865869 2063375072 853565707 1315255579 -386387577 627754595 -333844840
REM
REM ABC.pp (b4a81987505b5d62180816d9c6bc34eb)
REM 
CELL 1.54180    2.70162    2.71162    4.28106   90.00000   71.60706   90.00000
LATT -1
SFAC B  
B      1 -0.1500593117244  0.2230629397521  0.5015173610387 1.0
B      1 -0.3209507938201  0.7230629398353  0.8433002264214 1.0
B      1 -0.8215844105567  0.2230629402386  0.8445675588500 1.0
B      1  0.0141781435613  0.7230629400539  0.1730424602279 1.0
B      1  0.3493069725399  0.7230629401201  0.5027846934619 1.0
END
