TITL ABC-78-8314-381 0.0000006065 17.3003795226 -26.9893972223 0 0  3 (Amm2) n - 1
REM
REM Run started: at Fri Oct 6 14:24:06 BST 2023 in /home/michal/install/eddp/airss/examples/1.10
REM pp3 from code version ## 0.9.3 July 2022 commit b0220bf5cbf550a3b7
REM
REM
REM
REM Total runtime: s
REM
REM
REM ./ABC.cell (e32783a7be585090ebb5c77828425f51)
REM ## AIRSS Version 0.9.3 July 2022 commit b0220bf5cbf550a3b7
REM compiler GCC version 11.4.0
REM options -cpp -imultiarch x86_64-linux-gnu -mtune=generic -march=x86-64 -g -Og -fpre-include=/usr/include/finclude/math-vector-fortran.h
REM cmdline: airss.pl -pp3 -max 1000 -seed ABC 
REM seed 1300097708 -834760361 1852979426 -1021197520 -3724903 1204380367 1379086079 -1955307290
REM
REM ABC.pp (b4a81987505b5d62180816d9c6bc34eb)
REM 
CELL 1.54180    2.35769    3.43623    2.27340   90.00000   90.00000  110.06367
LATT -1
SFAC A  B  
A      1  1.3958759809591  0.5402374664126  0.4513036666523 1.0
A      1  0.6829708799002  0.1144273015457  0.9513036667041 1.0
B      2  1.0969316391407  0.9423488320417  0.4513036666436 1.0
END
