TITL ABC-78-8314-789 -0.0000002441 26.4411210376 -34.1745247121 0 0  5 (C2/m) n - 1
REM
REM Run started: at Fri Oct 6 14:32:07 BST 2023 in /home/michal/install/eddp/airss/examples/1.10
REM pp3 from code version ## 0.9.3 July 2022 commit b0220bf5cbf550a3b7
REM
REM
REM
REM Total runtime: s
REM
REM
REM ./ABC.cell (e32783a7be585090ebb5c77828425f51)
REM ## AIRSS Version 0.9.3 July 2022 commit b0220bf5cbf550a3b7
REM compiler GCC version 11.4.0
REM options -cpp -imultiarch x86_64-linux-gnu -mtune=generic -march=x86-64 -g -Og -fpre-include=/usr/include/finclude/math-vector-fortran.h
REM cmdline: airss.pl -pp3 -max 1000 -seed ABC 
REM seed 1422998428 841664458 1953043992 564389315 -25437777 2146796259 -2023869618 -1325606056
REM
REM ABC.pp (b4a81987505b5d62180816d9c6bc34eb)
REM 
CELL 1.54180    2.11569    3.37444    4.08860   76.97519   75.00528   71.73049
LATT -1
SFAC A  C  
A      1  0.8247876425642  0.6521779384448  0.6131894597571 1.0
C      2  0.0251232327271  0.0527810088823  0.8119152049274 1.0
C      2  0.2247538877064  0.4529032207765  0.0125316827505 1.0
C      2  0.6244520397539  0.2515748820701  0.4144637176466 1.0
C      2  0.4248213972484  0.8514526498263  0.2138472349184 1.0
END
