TITL ABC-78-8314-790 -0.0000000847 17.6974299765 -42.5528022459 0 0  4 (Pm-3m) n - 1
REM
REM Run started: at Fri Oct 6 14:32:08 BST 2023 in /home/michal/install/eddp/airss/examples/1.10
REM pp3 from code version ## 0.9.3 July 2022 commit b0220bf5cbf550a3b7
REM
REM
REM
REM Total runtime: s
REM
REM
REM ./ABC.cell (e32783a7be585090ebb5c77828425f51)
REM ## AIRSS Version 0.9.3 July 2022 commit b0220bf5cbf550a3b7
REM compiler GCC version 11.4.0
REM options -cpp -imultiarch x86_64-linux-gnu -mtune=generic -march=x86-64 -g -Og -fpre-include=/usr/include/finclude/math-vector-fortran.h
REM cmdline: airss.pl -pp3 -max 1000 -seed ABC 
REM seed -948737049 -1973600374 331857748 -1493536050 1731796353 -2125538151 216175149 971103203
REM
REM ABC.pp (b4a81987505b5d62180816d9c6bc34eb)
REM 
CELL 1.54180    2.06836    2.92511    2.92511   90.00000   90.00001   90.00000
LATT -1
SFAC A  B  
A      1  0.1760140253497  0.9154610385634  0.9468363029353 1.0
A      1  0.1760140253465  0.4154610398525  0.4468363025047 1.0
B      2  0.6760140247082  0.9154610125980  0.4468362978883 1.0
B      2  0.6760140245956  0.4154610089860  0.9468362966717 1.0
END
