TITL ABC-17872-7102-8 -0.0000008727 20.2974635642 -38.9638768720 0 0  5 (Cm) n - 1
REM
REM Run started: at Mon Nov 6 13:22:24 GMT 2023 in /home/michal/install/eddp/airss/examples/1.10
REM pp3 from code version ## 0.9.3 July 2022 commit b0220bf5cbf550a3b7
REM
REM
REM
REM Total runtime: s
REM
REM
REM ./ABC.cell (e32783a7be585090ebb5c77828425f51)
REM ## AIRSS Version 0.9.3 July 2022 commit b0220bf5cbf550a3b7
REM compiler GCC version 11.4.0
REM options -cpp -imultiarch x86_64-linux-gnu -mtune=generic -march=x86-64 -g -Og -fpre-include=/usr/include/finclude/math-vector-fortran.h
REM cmdline: airss.pl -pp3 -max 1000 -seed ABC 
REM seed 695331461 -1735990132 1168162766 -1256051650 -1644999078 -669929306 -453731691 521401750
REM
REM ABC.pp (b4a81987505b5d62180816d9c6bc34eb)
REM 
CELL 1.54180    2.30566    3.31595    3.06185   94.53383   67.88209  110.34434
LATT -1
SFAC A  B  C  
A      1  0.4731202116600  0.3942031428097  0.6654626806677 1.0
B      2  0.2825354959416  0.5994762492194  0.2519052154106 1.0
B      2  0.6584951196234  0.1898135395119  0.0903232606659 1.0
B      2  0.8219272427877  0.9622745752387  0.5359200501359 1.0
C      3  0.0508539299873  0.8225262932203  0.9383183931198 1.0
END
