TITL ABC-78-8314-44 -0.0000000028 15.0403083144 -12.5331991326 0 0  3 (Fm-3m) n - 1
REM
REM Run started: at Fri Oct 6 14:17:43 BST 2023 in /home/michal/install/eddp/airss/examples/1.10
REM pp3 from code version ## 0.9.3 July 2022 commit b0220bf5cbf550a3b7
REM
REM
REM
REM Total runtime: s
REM
REM
REM ./ABC.cell (e32783a7be585090ebb5c77828425f51)
REM ## AIRSS Version 0.9.3 July 2022 commit b0220bf5cbf550a3b7
REM compiler GCC version 11.4.0
REM options -cpp -imultiarch x86_64-linux-gnu -mtune=generic -march=x86-64 -g -Og -fpre-include=/usr/include/finclude/math-vector-fortran.h
REM cmdline: airss.pl -pp3 -max 1000 -seed ABC 
REM seed -2126005423 189413496 1404103054 961995200 1101563646 -1722916623 -1095928223 1367232660
REM
REM ABC.pp (b4a81987505b5d62180816d9c6bc34eb)
REM 
CELL 1.54180    1.92110    2.71685    3.32744  114.09485   73.22137   90.00000
LATT -1
SFAC B  
B      1  0.1414567648970  0.1155647666521  0.0860428999993 1.0
B      1  0.4747901359531  0.7822314334495  0.4193762333368 1.0
B      1  0.8081233991499  0.4488980998984  0.7527095666639 1.0
END
