TITL ABC-78-8314-591 0.0000002873 22.0703259738 -25.0663982653 0 0  3 (Fm-3m) n - 1
REM
REM Run started: at Fri Oct 6 14:28:12 BST 2023 in /home/michal/install/eddp/airss/examples/1.10
REM pp3 from code version ## 0.9.3 July 2022 commit b0220bf5cbf550a3b7
REM
REM
REM
REM Total runtime: s
REM
REM
REM ./ABC.cell (e32783a7be585090ebb5c77828425f51)
REM ## AIRSS Version 0.9.3 July 2022 commit b0220bf5cbf550a3b7
REM compiler GCC version 11.4.0
REM options -cpp -imultiarch x86_64-linux-gnu -mtune=generic -march=x86-64 -g -Og -fpre-include=/usr/include/finclude/math-vector-fortran.h
REM cmdline: airss.pl -pp3 -max 1000 -seed ABC 
REM seed 1704199814 120265862 1920814231 725003554 -1799203326 -86634389 1451882121 30393638
REM
REM ABC.pp (b4a81987505b5d62180816d9c6bc34eb)
REM 
CELL 1.54180    2.18307    3.78119    3.08733   65.90515   90.00000  106.77864
LATT -1
SFAC A  
A      1  0.2645112986321  0.1017695306124 -0.0556059659337 1.0
A      1  0.9311779665147  0.4351028663513  0.2777273740930 1.0
A      1  0.5978446348532  0.7684362030363 -0.3889393081594 1.0
END
