TITL ABC-78-8314-61 -0.0000000151 30.6882048063 -48.7142510196 0 0  7 (Cm) n - 1
REM
REM Run started: at Fri Oct 6 14:18:01 BST 2023 in /home/michal/install/eddp/airss/examples/1.10
REM pp3 from code version ## 0.9.3 July 2022 commit b0220bf5cbf550a3b7
REM
REM
REM
REM Total runtime: s
REM
REM
REM ./ABC.cell (e32783a7be585090ebb5c77828425f51)
REM ## AIRSS Version 0.9.3 July 2022 commit b0220bf5cbf550a3b7
REM compiler GCC version 11.4.0
REM options -cpp -imultiarch x86_64-linux-gnu -mtune=generic -march=x86-64 -g -Og -fpre-include=/usr/include/finclude/math-vector-fortran.h
REM cmdline: airss.pl -pp3 -max 1000 -seed ABC 
REM seed -564638063 -563647673 -1446004744 2001753117 364548968 2056637208 -1881791391 1262322483
REM
REM ABC.pp (b4a81987505b5d62180816d9c6bc34eb)
REM 
CELL 1.54180    2.71575    3.62698    3.39939   91.22310  113.54352   90.00000
LATT -1
SFAC A  B  C  
A      1  0.3784320657906  0.8005312424242  0.9251072734069 1.0
B      2  0.9272583769861  0.5077850965930  0.0227598943489 1.0
B      2  0.6565631944828  0.6961436903356  0.4813695334088 1.0
C      3  0.7801584187850  0.1139817251807  0.7285599806146 1.0
C      3  0.4837159668572  0.2950069265840  0.1356750753839 1.0
C      3  0.1800499966674  0.4245873136216  0.5283431383339 1.0
C      3  0.0782948804310  0.9219420052609  0.3248329045031 1.0
END
