TITL ABC-78-8314-447 -0.0000015185 11.5562998271 -16.6523072798 0 0  2 (P-6m2) n - 1
REM
REM Run started: at Fri Oct 6 14:25:22 BST 2023 in /home/michal/install/eddp/airss/examples/1.10
REM pp3 from code version ## 0.9.3 July 2022 commit b0220bf5cbf550a3b7
REM
REM
REM
REM Total runtime: s
REM
REM
REM ./ABC.cell (e32783a7be585090ebb5c77828425f51)
REM ## AIRSS Version 0.9.3 July 2022 commit b0220bf5cbf550a3b7
REM compiler GCC version 11.4.0
REM options -cpp -imultiarch x86_64-linux-gnu -mtune=generic -march=x86-64 -g -Og -fpre-include=/usr/include/finclude/math-vector-fortran.h
REM cmdline: airss.pl -pp3 -max 1000 -seed ABC 
REM seed 235049299 -1694298912 1615278953 476804209 -1884092128 1151643697 1504317816 -1255907713
REM
REM ABC.pp (b4a81987505b5d62180816d9c6bc34eb)
REM 
CELL 1.54180    2.14125    2.14125    2.91040   90.00000   90.00000   60.00001
LATT -1
SFAC A  C  
A      1  0.2348702255262  0.7050378633197  0.1663353499936 1.0
C      2  0.5682035744738  0.0383712366802  0.6663353500064 1.0
END
