TITL ABC-17872-7102-20 -0.0000000000 10.0266994271 -8.3564190078 0 0  2 (P63/mmc) n - 1
REM
REM Run started: at Mon Nov 6 13:22:36 GMT 2023 in /home/michal/install/eddp/airss/examples/1.10
REM pp3 from code version ## 0.9.3 July 2022 commit b0220bf5cbf550a3b7
REM
REM
REM
REM Total runtime: s
REM
REM
REM ./ABC.cell (e32783a7be585090ebb5c77828425f51)
REM ## AIRSS Version 0.9.3 July 2022 commit b0220bf5cbf550a3b7
REM compiler GCC version 11.4.0
REM options -cpp -imultiarch x86_64-linux-gnu -mtune=generic -march=x86-64 -g -Og -fpre-include=/usr/include/finclude/math-vector-fortran.h
REM cmdline: airss.pl -pp3 -max 1000 -seed ABC 
REM seed 1712270489 -769700295 1037803681 -125393612 -373449096 -639533706 774902681 -1731724947
REM
REM ABC.pp (b4a81987505b5d62180816d9c6bc34eb)
REM 
CELL 1.54180    1.92118    1.92118    3.13682   90.00002   89.99999  119.99993
LATT -1
SFAC B  
B      1  0.2111150663536  0.9023597166651  0.5802327495974 1.0
B      1  0.8777813336464  0.2356935833349  0.0802327504026 1.0
END
