TITL ABC-78-8314-113 0.0000004122 30.0107168233 -33.8182716437 0 0  7 (P2/m) n - 1
REM
REM Run started: at Fri Oct 6 14:18:59 BST 2023 in /home/michal/install/eddp/airss/examples/1.10
REM pp3 from code version ## 0.9.3 July 2022 commit b0220bf5cbf550a3b7
REM
REM
REM
REM Total runtime: s
REM
REM
REM ./ABC.cell (e32783a7be585090ebb5c77828425f51)
REM ## AIRSS Version 0.9.3 July 2022 commit b0220bf5cbf550a3b7
REM compiler GCC version 11.4.0
REM options -cpp -imultiarch x86_64-linux-gnu -mtune=generic -march=x86-64 -g -Og -fpre-include=/usr/include/finclude/math-vector-fortran.h
REM cmdline: airss.pl -pp3 -max 1000 -seed ABC 
REM seed 1453367957 -2019068333 -544451621 738092318 1167243676 1095151371 -556194517 1986762232
REM
REM ABC.pp (b4a81987505b5d62180816d9c6bc34eb)
REM 
CELL 1.54180    1.93994    4.19902    3.92937  110.34792   90.00000   90.00000
LATT -1
SFAC B  C  
B      1  0.8565290428571  0.3658879439632  0.7021486821407 1.0
B      1  0.3565290428571  0.1817577615234  0.2750507884282 1.0
B      1  0.8565290428571  0.8963438462125  0.4779606449851 1.0
B      1  0.3565290428571  0.5500181544203  0.1292465907952 1.0
B      1  0.8565290428572  0.8354320734079  0.9263367299800 1.0
C      2  0.3565290428571  0.1192716321657  0.8363173693637 1.0
C      2  0.3565290428572  0.6125042883070  0.5679799943071 1.0
END
