TITL ABC-23792-6234-46 -0.0000000084 10.7259929816 -10.0277028093 0 0  2 (P63/mmc) n - 1
REM
REM Run started: at Mon Nov 6 13:33:24 GMT 2023 in /home/michal/install/eddp/airss/examples/1.10
REM pp3 from code version ## 0.9.3 July 2022 commit b0220bf5cbf550a3b7
REM
REM
REM
REM Total runtime: s
REM
REM
REM ./ABC.cell (e32783a7be585090ebb5c77828425f51)
REM ## AIRSS Version 0.9.3 July 2022 commit b0220bf5cbf550a3b7
REM compiler GCC version 11.4.0
REM options -cpp -imultiarch x86_64-linux-gnu -mtune=generic -march=x86-64 -g -Og -fpre-include=/usr/include/finclude/math-vector-fortran.h
REM cmdline: airss.pl -pp3 -max 1000 -seed ABC 
REM seed -705745736 1296529901 -43048675 -94155622 -1977804245 -522340231 -1195034369 309262599
REM
REM ABC.pp (b4a81987505b5d62180816d9c6bc34eb)
REM 
CELL 1.54180    1.96485    1.96485    3.20811   89.99999   90.00000   60.00000
LATT -1
SFAC C  
C      1  0.9487058825438  0.9883641207413  0.9411585500174 1.0
C      1  0.6153725174562  0.6550307792587  0.4411585499826 1.0
END
