TITL ABC-78-8314-352 0.0000000048 12.3019614064 -17.0963300796 0 0  3 (I4/mmm) n - 1
REM
REM Run started: at Fri Oct 6 14:23:33 BST 2023 in /home/michal/install/eddp/airss/examples/1.10
REM pp3 from code version ## 0.9.3 July 2022 commit b0220bf5cbf550a3b7
REM
REM
REM
REM Total runtime: s
REM
REM
REM ./ABC.cell (e32783a7be585090ebb5c77828425f51)
REM ## AIRSS Version 0.9.3 July 2022 commit b0220bf5cbf550a3b7
REM compiler GCC version 11.4.0
REM options -cpp -imultiarch x86_64-linux-gnu -mtune=generic -march=x86-64 -g -Og -fpre-include=/usr/include/finclude/math-vector-fortran.h
REM cmdline: airss.pl -pp3 -max 1000 -seed ABC 
REM seed -551143098 1498721642 -206294956 1559874687 611152918 -1816009224 -343773717 -1159064561
REM
REM ABC.pp (b4a81987505b5d62180816d9c6bc34eb)
REM 
CELL 1.54180    1.93698    1.93698    3.55344   74.18396   74.18396   90.00000
LATT -1
SFAC B  C  
B      1  0.9402746233924  0.2437727940972  0.1913124009492 1.0
C      2  0.5846822248300  0.8881803931139  0.9024972453642 1.0
C      2  0.2958670517776  0.5993652127889  0.4801275536866 1.0
END
