TITL ABC-78-8314-67 -0.0000004424 14.7135502856 -16.7109321769 0 0  2 (Fm-3m) n - 1
REM
REM Run started: at Fri Oct 6 14:18:07 BST 2023 in /home/michal/install/eddp/airss/examples/1.10
REM pp3 from code version ## 0.9.3 July 2022 commit b0220bf5cbf550a3b7
REM
REM
REM
REM Total runtime: s
REM
REM
REM ./ABC.cell (e32783a7be585090ebb5c77828425f51)
REM ## AIRSS Version 0.9.3 July 2022 commit b0220bf5cbf550a3b7
REM compiler GCC version 11.4.0
REM options -cpp -imultiarch x86_64-linux-gnu -mtune=generic -march=x86-64 -g -Og -fpre-include=/usr/include/finclude/math-vector-fortran.h
REM cmdline: airss.pl -pp3 -max 1000 -seed ABC 
REM seed 361197767 -40207370 -36799226 435443768 -114614318 295614160 -32899240 1085500689
REM
REM ABC.pp (b4a81987505b5d62180816d9c6bc34eb)
REM 
CELL 1.54180    2.18307    2.18307    3.08733   90.00000   90.00000   90.00000
LATT -1
SFAC A  
A      1  0.8132663496146  0.5051877000023  0.7178470497043 1.0
A      1  0.3132663503854  0.0051876999977  0.2178470502957 1.0
END
