TITL ABC-23792-6234-129 -0.0000019308 24.8142311256 -30.2191618312 0 0  6 (C2/m) n - 1
REM
REM Run started: at Mon Nov 6 13:34:52 GMT 2023 in /home/michal/install/eddp/airss/examples/1.10
REM pp3 from code version ## 0.9.3 July 2022 commit b0220bf5cbf550a3b7
REM
REM
REM
REM Total runtime: s
REM
REM
REM ./ABC.cell (e32783a7be585090ebb5c77828425f51)
REM ## AIRSS Version 0.9.3 July 2022 commit b0220bf5cbf550a3b7
REM compiler GCC version 11.4.0
REM options -cpp -imultiarch x86_64-linux-gnu -mtune=generic -march=x86-64 -g -Og -fpre-include=/usr/include/finclude/math-vector-fortran.h
REM cmdline: airss.pl -pp3 -max 1000 -seed ABC 
REM seed -1945386983 -981669695 244126128 -732715027 253654169 -1021373004 147115761 70774360
REM
REM ABC.pp (b4a81987505b5d62180816d9c6bc34eb)
REM 
CELL 1.54180    1.96028    3.35182    4.24479   70.13253   76.64967   72.99705
LATT -1
SFAC B  C  
B      1  0.1083117835521  0.1871892308055  0.5847152039355 1.0
B      1  0.5317622634067  0.6432035991462  0.2817997838399 1.0
B      1  0.2536467164194  0.5967116690866  0.8845228962159 1.0
B      1  0.8301962366143  0.1406973009269  0.1874383160655 1.0
C      2  0.5231590967472  0.0286844950932  0.9135253294784 1.0
C      2  0.8387994032603  0.7552164049416  0.5557127704648 1.0
END
