TITL ABC-24937-8325-110 -0.0000000184 56.0145392375 -65.2947978854 0 0  8 (P1) n - 1
REM
REM Run started: at Mon Nov 6 13:21:00 GMT 2023 in /home/michal/install/eddp/airss/examples/1.10
REM pp3 from code version ## 0.9.3 July 2022 commit b0220bf5cbf550a3b7
REM
REM
REM
REM Total runtime: s
REM
REM
REM ./ABC.cell (e32783a7be585090ebb5c77828425f51)
REM ## AIRSS Version 0.9.3 July 2022 commit b0220bf5cbf550a3b7
REM compiler GCC version 11.4.0
REM options -cpp -imultiarch x86_64-linux-gnu -mtune=generic -march=x86-64 -g -Og -fpre-include=/usr/include/finclude/math-vector-fortran.h
REM cmdline: airss.pl -pp3 -max 1000 -seed ABC 
REM seed -955884046 444405094 904743044 710720719 1956279241 -609780697 -418472056 -1680752294
REM
REM ABC.pp (b4a81987505b5d62180816d9c6bc34eb)
REM 
CELL 1.54180    3.39381    3.65502    5.06019   98.29336   83.85390   66.49669
LATT -1
SFAC A  B  
A      1  0.1461855560985  0.3540447120863  0.0030411282863 1.0
A      1  0.5775495432317  0.2754578023873  0.3539063052109 1.0
A      1  0.2353602080787  0.9973370177361  0.5995232956659 1.0
A      1  0.8293848981070  0.9545249023899  0.9317548219339 1.0
A      1  0.8965614641116  0.6682941674360  0.4121884956971 1.0
A      1  0.3594791698227  0.8154646350644  0.1719850509057 1.0
A      1  0.6289414147349  0.4973411761320  0.7640427734891 1.0
B      2  0.1484836458149  0.5128918867680  0.6788268288112 1.0
END
