TITL ABC-17872-7102-62 -0.0000000010 14.0070143766 -25.8994783235 0 0  4 (Pm-3m) n - 1
REM
REM Run started: at Mon Nov 6 13:23:19 GMT 2023 in /home/michal/install/eddp/airss/examples/1.10
REM pp3 from code version ## 0.9.3 July 2022 commit b0220bf5cbf550a3b7
REM
REM
REM
REM Total runtime: s
REM
REM
REM ./ABC.cell (e32783a7be585090ebb5c77828425f51)
REM ## AIRSS Version 0.9.3 July 2022 commit b0220bf5cbf550a3b7
REM compiler GCC version 11.4.0
REM options -cpp -imultiarch x86_64-linux-gnu -mtune=generic -march=x86-64 -g -Og -fpre-include=/usr/include/finclude/math-vector-fortran.h
REM cmdline: airss.pl -pp3 -max 1000 -seed ABC 
REM seed 450415126 1649464206 -900908711 -1071150037 -1821777381 704535723 91010094 -421336580
REM
REM ABC.pp (b4a81987505b5d62180816d9c6bc34eb)
REM 
CELL 1.54180    1.91325    2.70575    2.70574   90.00000   90.00000   89.99998
LATT -1
SFAC B  C  
B      1  0.3739914555825  0.2133659713996  0.9658341756844 1.0
B      1  0.3739914555911  0.7133659714688  0.4658341754833 1.0
C      2  0.8739914444129  0.7133659785377  0.9658341744293 1.0
C      2  0.8739914444136  0.2133659785939  0.4658341744031 1.0
END
