TITL ABC-78-8314-135 0.0000000805 35.0209975963 -53.1736808742 0 0  7 (P1) n - 1
REM
REM Run started: at Fri Oct 6 14:19:22 BST 2023 in /home/michal/install/eddp/airss/examples/1.10
REM pp3 from code version ## 0.9.3 July 2022 commit b0220bf5cbf550a3b7
REM
REM
REM
REM Total runtime: s
REM
REM
REM ./ABC.cell (e32783a7be585090ebb5c77828425f51)
REM ## AIRSS Version 0.9.3 July 2022 commit b0220bf5cbf550a3b7
REM compiler GCC version 11.4.0
REM options -cpp -imultiarch x86_64-linux-gnu -mtune=generic -march=x86-64 -g -Og -fpre-include=/usr/include/finclude/math-vector-fortran.h
REM cmdline: airss.pl -pp3 -max 1000 -seed ABC 
REM seed -1459062631 -692504195 -1530645522 -566481850 -1499966199 1725598348 -1751846749 518398850
REM
REM ABC.pp (b4a81987505b5d62180816d9c6bc34eb)
REM 
CELL 1.54180    3.51637    3.43627    3.28897  117.36779   87.58105   85.17566
LATT -1
SFAC A  B  C  
A      1  0.2309142801754  0.3290131316059  0.1342225937971 1.0
A      1  0.8061240577938  0.9105750790985  0.7456079037490 1.0
B      2  0.0275726042458  0.8340697489254  0.1855789173486 1.0
C      3  0.6942581756854  0.5515388078058  0.0932380219245 1.0
C      3  0.3222904456747  0.6693852005888  0.7601664040359 1.0
C      3  0.3462396586049  0.0427046916034  0.4963919227776 1.0
C      3  0.7925835778200  0.2895912403721  0.4596324363673 1.0
END
