TITL ABC-78-8314-424 -0.0000013033 10.6123622338 -19.0477454010 0 0  2 (Pm-3m) n - 1
REM
REM Run started: at Fri Oct 6 14:24:57 BST 2023 in /home/michal/install/eddp/airss/examples/1.10
REM pp3 from code version ## 0.9.3 July 2022 commit b0220bf5cbf550a3b7
REM
REM
REM
REM Total runtime: s
REM
REM
REM ./ABC.cell (e32783a7be585090ebb5c77828425f51)
REM ## AIRSS Version 0.9.3 July 2022 commit b0220bf5cbf550a3b7
REM compiler GCC version 11.4.0
REM options -cpp -imultiarch x86_64-linux-gnu -mtune=generic -march=x86-64 -g -Og -fpre-include=/usr/include/finclude/math-vector-fortran.h
REM cmdline: airss.pl -pp3 -max 1000 -seed ABC 
REM seed -624123221 -258454426 1573607709 -862449766 -331153950 2126662303 -322151500 173503501
REM
REM ABC.pp (b4a81987505b5d62180816d9c6bc34eb)
REM 
CELL 1.54180    2.19754    2.19754    2.19754   90.00000   90.00000   89.99999
LATT -1
SFAC A  C  
A      1  0.3493061500618  0.5839208999276  0.1941965994973 1.0
C      2  0.8493061499382  0.0839209000724  0.6941966005027 1.0
END
