TITL ABC-78-8314-828 0.0000000130 20.4403195217 -27.5377833893 0 0  5 (C2/m) n - 1
REM
REM Run started: at Fri Oct 6 14:32:51 BST 2023 in /home/michal/install/eddp/airss/examples/1.10
REM pp3 from code version ## 0.9.3 July 2022 commit b0220bf5cbf550a3b7
REM
REM
REM
REM Total runtime: s
REM
REM
REM ./ABC.cell (e32783a7be585090ebb5c77828425f51)
REM ## AIRSS Version 0.9.3 July 2022 commit b0220bf5cbf550a3b7
REM compiler GCC version 11.4.0
REM options -cpp -imultiarch x86_64-linux-gnu -mtune=generic -march=x86-64 -g -Og -fpre-include=/usr/include/finclude/math-vector-fortran.h
REM cmdline: airss.pl -pp3 -max 1000 -seed ABC 
REM seed -522647236 849911811 343245153 1059532240 -372667961 435553798 880494974 536789290
REM
REM ABC.pp (b4a81987505b5d62180816d9c6bc34eb)
REM 
CELL 1.54180    1.96139    3.17233    3.67190   96.67340  105.49069  108.00746
LATT -1
SFAC B  C  
B      1  0.3723846871416  0.4481642390737  0.4821750603055 1.0
B      1  0.8176891512492  0.0611632028874  0.7597850190451 1.0
C      2  0.5950369216913  0.2546637189917  0.1209800402070 1.0
C      2  0.1532481010142  0.6379451779737  0.8541209507555 1.0
C      2  0.0368257389037  0.8713822610735  0.3878391296869 1.0
END
