TITL ABC-10487-7284-48 -0.0000000184 40.3453362198 -39.7701293062 0 0  8 (Pm) n - 1
REM
REM Run started: at Mon Nov 6 13:30:49 GMT 2023 in /home/michal/install/eddp/airss/examples/1.10
REM pp3 from code version ## 0.9.3 July 2022 commit b0220bf5cbf550a3b7
REM
REM
REM
REM Total runtime: s
REM
REM
REM ./ABC.cell (e32783a7be585090ebb5c77828425f51)
REM ## AIRSS Version 0.9.3 July 2022 commit b0220bf5cbf550a3b7
REM compiler GCC version 11.4.0
REM options -cpp -imultiarch x86_64-linux-gnu -mtune=generic -march=x86-64 -g -Og -fpre-include=/usr/include/finclude/math-vector-fortran.h
REM cmdline: airss.pl -pp3 -max 1000 -seed ABC 
REM seed 430823041 1757176994 1796250969 -1474644998 -1139038562 -2015936 -1748320004 1310863832
REM
REM ABC.pp (b4a81987505b5d62180816d9c6bc34eb)
REM 
CELL 1.54180    1.97151    4.84214    4.82036   61.25343   90.00000   90.00000
LATT -1
SFAC B  C  
B      1  0.6620950625044  0.1429017572507  0.6966803365634 1.0
C      2  0.1620950624760  0.2241597965300  0.4005732982190 1.0
C      2  0.1620950624884  0.3836469832178  0.7452067643565 1.0
C      2  0.6620950624999  0.8256648205941  0.5974846757936 1.0
C      2  0.6620950624660  0.4949108817784  0.0210399914107 1.0
C      2  0.1620950625363  0.8667033391111  0.9358605333222 1.0
C      2  0.6620950626184  0.0650662186509  0.1360729291743 1.0
C      2  0.6620950624107  0.6055051028671  0.3497254711602 1.0
END
