TITL ABC-78-8314-835 -0.0000000430 14.0070143263 -25.8994783235 0 0  4 (Pm-3m) n - 1
REM
REM Run started: at Fri Oct 6 14:33:00 BST 2023 in /home/michal/install/eddp/airss/examples/1.10
REM pp3 from code version ## 0.9.3 July 2022 commit b0220bf5cbf550a3b7
REM
REM
REM
REM Total runtime: s
REM
REM
REM ./ABC.cell (e32783a7be585090ebb5c77828425f51)
REM ## AIRSS Version 0.9.3 July 2022 commit b0220bf5cbf550a3b7
REM compiler GCC version 11.4.0
REM options -cpp -imultiarch x86_64-linux-gnu -mtune=generic -march=x86-64 -g -Og -fpre-include=/usr/include/finclude/math-vector-fortran.h
REM cmdline: airss.pl -pp3 -max 1000 -seed ABC 
REM seed 2143201644 630853769 -1835108595 -998604799 -76201966 -2019348140 -568107665 2074213083
REM
REM ABC.pp (b4a81987505b5d62180816d9c6bc34eb)
REM 
CELL 1.54180    2.70574    2.70574    2.70574  120.00000   60.00000  120.00000
LATT -1
SFAC B  C  
B      1  0.3252664750082  0.2505916749915  0.4587458749829 1.0
B      1  0.8252664750382  0.7505916749992  0.9587458749707 1.0
C      2  0.0752664750897  0.5005916752106  0.2087458752387 1.0
C      2  0.5752664748640  0.0005916747987  0.7087458748076 1.0
END
