TITL ABC-78-8314-214 -0.0000009372 22.0703264934 -25.0663982652 0 0  3 (Fm-3m) n - 1
REM
REM Run started: at Fri Oct 6 14:20:53 BST 2023 in /home/michal/install/eddp/airss/examples/1.10
REM pp3 from code version ## 0.9.3 July 2022 commit b0220bf5cbf550a3b7
REM
REM
REM
REM Total runtime: s
REM
REM
REM ./ABC.cell (e32783a7be585090ebb5c77828425f51)
REM ## AIRSS Version 0.9.3 July 2022 commit b0220bf5cbf550a3b7
REM compiler GCC version 11.4.0
REM options -cpp -imultiarch x86_64-linux-gnu -mtune=generic -march=x86-64 -g -Og -fpre-include=/usr/include/finclude/math-vector-fortran.h
REM cmdline: airss.pl -pp3 -max 1000 -seed ABC 
REM seed -937037023 -823258949 -1728354905 -617444843 -1168429460 -1932752596 -1084607266 -1060832420
REM
REM ABC.pp (b4a81987505b5d62180816d9c6bc34eb)
REM 
CELL 1.54180    2.18307    3.08732    3.78119   65.90517   73.22143   90.00000
LATT -1
SFAC A  
A      1  0.4915711000055  0.3453771652676  0.3791017666556 1.0
A      1  0.8249044333344  0.6787104999549  0.7124350999979 1.0
A      1  0.1582377666600  0.0120438347775  0.0457684333465 1.0
END
