TITL ABC-78-8314-253 -0.0000027666 12.7593097223 -14.5937236412 0 0  3 (Amm2) n - 1
REM
REM Run started: at Fri Oct 6 14:21:37 BST 2023 in /home/michal/install/eddp/airss/examples/1.10
REM pp3 from code version ## 0.9.3 July 2022 commit b0220bf5cbf550a3b7
REM
REM
REM
REM Total runtime: s
REM
REM
REM ./ABC.cell (e32783a7be585090ebb5c77828425f51)
REM ## AIRSS Version 0.9.3 July 2022 commit b0220bf5cbf550a3b7
REM compiler GCC version 11.4.0
REM options -cpp -imultiarch x86_64-linux-gnu -mtune=generic -march=x86-64 -g -Og -fpre-include=/usr/include/finclude/math-vector-fortran.h
REM cmdline: airss.pl -pp3 -max 1000 -seed ABC 
REM seed -267266509 134301989 -14774604 1386736397 579229515 412436984 1082168163 1896301875
REM
REM ABC.pp (b4a81987505b5d62180816d9c6bc34eb)
REM 
CELL 1.54180    1.95650    2.36420    3.00106   66.80301   90.00056   90.00000
LATT -1
SFAC B  C  
B      1  0.8456343337061 -0.2041458803920  0.2234281270936 1.0
B      1  0.3456393112949  0.0972770393134  0.6205822871214 1.0
C      2  0.3456295549990  0.3985008410786  0.0181346857850 1.0
END
