TITL ABC-78-8314-206 0.0000000304 34.9147892167 -49.5341911151 0 0  7 (Imm2) n - 1
REM
REM Run started: at Fri Oct 6 14:20:44 BST 2023 in /home/michal/install/eddp/airss/examples/1.10
REM pp3 from code version ## 0.9.3 July 2022 commit b0220bf5cbf550a3b7
REM
REM
REM
REM Total runtime: s
REM
REM
REM ./ABC.cell (e32783a7be585090ebb5c77828425f51)
REM ## AIRSS Version 0.9.3 July 2022 commit b0220bf5cbf550a3b7
REM compiler GCC version 11.4.0
REM options -cpp -imultiarch x86_64-linux-gnu -mtune=generic -march=x86-64 -g -Og -fpre-include=/usr/include/finclude/math-vector-fortran.h
REM cmdline: airss.pl -pp3 -max 1000 -seed ABC 
REM seed -1528288544 -812034849 -974915405 950725106 -275672421 1439880300 1839704774 2137684620
REM
REM ABC.pp (b4a81987505b5d62180816d9c6bc34eb)
REM 
CELL 1.54180    2.09141    4.43173    4.43175   62.15632  103.64807  103.64812
LATT -1
SFAC A  B  
A      1  0.5652027372927  0.6581013649564  0.5415882486380 1.0
A      1  0.1938722085382  0.2867729578104  0.1702554456716 1.0
B      2  0.8795378244312  0.5652126024895  0.2631470970994 1.0
B      2  0.7580139866780  0.0657654344888  0.5195466352478 1.0
B      2  0.0010600219416  0.3088089925610  0.7625950648613 1.0
B      2  0.2475837901597  0.7145363222155  0.8499153277261 1.0
B      2  0.5114920309586  0.9784426254784  0.1138254807558 1.0
END
