TITL ABC-17872-7102-95 0.0000007328 50.3193209203 -69.1553043544 0 0  8 (Cm) n - 1
REM
REM Run started: at Mon Nov 6 13:23:53 GMT 2023 in /home/michal/install/eddp/airss/examples/1.10
REM pp3 from code version ## 0.9.3 July 2022 commit b0220bf5cbf550a3b7
REM
REM
REM
REM Total runtime: s
REM
REM
REM ./ABC.cell (e32783a7be585090ebb5c77828425f51)
REM ## AIRSS Version 0.9.3 July 2022 commit b0220bf5cbf550a3b7
REM compiler GCC version 11.4.0
REM options -cpp -imultiarch x86_64-linux-gnu -mtune=generic -march=x86-64 -g -Og -fpre-include=/usr/include/finclude/math-vector-fortran.h
REM cmdline: airss.pl -pp3 -max 1000 -seed ABC 
REM seed -1255369074 -297348983 1798812887 -1895341255 -1859634600 625787760 -1049282508 -554942919
REM
REM ABC.pp (b4a81987505b5d62180816d9c6bc34eb)
REM 
CELL 1.54180    2.17944    4.24247    5.75624   88.09654  100.91258   75.11618
LATT -1
SFAC A  B  C  
A      1  0.9332456803064  0.1915452885381  0.4421490602431 1.0
A      1  0.6710621790199  0.1644623806399  0.8906991516351 1.0
A      1  0.1479754817223  0.4557287309970  0.1357921092486 1.0
A      1  0.3667955034257  0.7300634639423  0.8477668836324 1.0
A      1  0.4411222359950  0.9210037605165  0.1873606433582 1.0
A      1  0.2106351043283  0.6665377530330  0.4719203721890 1.0
B      2  0.6572037836394  0.9291578007707  0.6276777803020 1.0
C      3  0.9374424315629  0.4406491215625  0.6996463993916 1.0
END
