TITL ABC-78-8314-2 -0.0000000077 10.7261778120 -10.0265593060 0 0  2 (Fm-3m) n - 1
REM
REM Run started: at Fri Oct 6 14:17:00 BST 2023 in /home/michal/install/eddp/airss/examples/1.10
REM pp3 from code version ## 0.9.3 July 2022 commit b0220bf5cbf550a3b7
REM
REM
REM
REM Total runtime: s
REM
REM
REM ./ABC.cell (e32783a7be585090ebb5c77828425f51)
REM ## AIRSS Version 0.9.3 July 2022 commit b0220bf5cbf550a3b7
REM compiler GCC version 11.4.0
REM options -cpp -imultiarch x86_64-linux-gnu -mtune=generic -march=x86-64 -g -Og -fpre-include=/usr/include/finclude/math-vector-fortran.h
REM cmdline: airss.pl -pp3 -max 1000 -seed ABC 
REM seed -1596705938 -1566726202 -154264065 -1645833036 500224903 -1179078244 740900282 235402593
REM
REM ABC.pp (b4a81987505b5d62180816d9c6bc34eb)
REM 
CELL 1.54180    1.96476    1.96476    3.40307   73.22148  106.77853  119.99992
LATT -1
SFAC C  
C      1  0.2779660014769  0.9024376985230  0.6191774044319 1.0
C      1  0.7779659985231  0.4024377014770  0.1191773955681 1.0
END
