TITL ABC-78-8314-364 0.0000004315 35.9912723188 -55.6554981902 0 0  7 (C2/m) n - 1
REM
REM Run started: at Fri Oct 6 14:23:48 BST 2023 in /home/michal/install/eddp/airss/examples/1.10
REM pp3 from code version ## 0.9.3 July 2022 commit b0220bf5cbf550a3b7
REM
REM
REM
REM Total runtime: s
REM
REM
REM ./ABC.cell (e32783a7be585090ebb5c77828425f51)
REM ## AIRSS Version 0.9.3 July 2022 commit b0220bf5cbf550a3b7
REM compiler GCC version 11.4.0
REM options -cpp -imultiarch x86_64-linux-gnu -mtune=generic -march=x86-64 -g -Og -fpre-include=/usr/include/finclude/math-vector-fortran.h
REM cmdline: airss.pl -pp3 -max 1000 -seed ABC 
REM seed -2016875386 1459029206 2101420552 243757596 1831291566 2038553178 1620001553 -565536240
REM
REM ABC.pp (b4a81987505b5d62180816d9c6bc34eb)
REM 
CELL 1.54180    2.67578    3.34411    4.42154   83.60588   90.00000  113.58277
LATT -1
SFAC A  C  
A      1  1.0873145465681  0.4371830205384  0.5975202703671 1.0
A      1  0.9319943686089  0.1265426342998  0.0506906186392 1.0
C      2  1.2210931174750  0.7047401289523  0.1794953031219 1.0
C      2  1.7982158136216  0.8589855260962  0.4687155807910 1.0
C      2  0.5096544696700  0.2818628310474  0.3241054433322 1.0
C      2  0.6498828341335  0.5623196379086  0.8935469175624 1.0
C      2  0.3694260499229  0.0014060211573  0.7546639661861 1.0
END
