TITL ABC-78-8314-303 -0.0000040342 28.9395744255 -39.6235612383 0 0  6 (P-6) n - 1
REM
REM Run started: at Fri Oct 6 14:22:37 BST 2023 in /home/michal/install/eddp/airss/examples/1.10
REM pp3 from code version ## 0.9.3 July 2022 commit b0220bf5cbf550a3b7
REM
REM
REM
REM Total runtime: s
REM
REM
REM ./ABC.cell (e32783a7be585090ebb5c77828425f51)
REM ## AIRSS Version 0.9.3 July 2022 commit b0220bf5cbf550a3b7
REM compiler GCC version 11.4.0
REM options -cpp -imultiarch x86_64-linux-gnu -mtune=generic -march=x86-64 -g -Og -fpre-include=/usr/include/finclude/math-vector-fortran.h
REM cmdline: airss.pl -pp3 -max 1000 -seed ABC 
REM seed -714024767 -1183486525 -1583873447 -243398681 -736621664 1707339132 -1267299786 -487146426
REM
REM ABC.pp (b4a81987505b5d62180816d9c6bc34eb)
REM 
CELL 1.54180    3.07672    3.29562    3.29562  120.00000   90.00004   89.99998
LATT -1
SFAC A  B  C  
A      1  0.7011716651573  0.5303387032130  0.3507249573678 1.0
B      2  0.7011723141006  0.1970053731040  0.6840582539325 1.0
C      3  0.7011716664711  0.8636720758206  0.0173916413399 1.0
C      3  0.2011718058162  0.5217160322795  0.6845346759645 1.0
C      3  0.2011715470249  0.1965290499723  0.0082926759738 1.0
C      3  0.2011717014300  0.8727710656105  0.3593476954216 1.0
END
