TITL ABC-78-8314-792 -0.0000001366 27.5977456614 -49.3001516785 0 0  6 (C2/m) n - 1
REM
REM Run started: at Fri Oct 6 14:32:11 BST 2023 in /home/michal/install/eddp/airss/examples/1.10
REM pp3 from code version ## 0.9.3 July 2022 commit b0220bf5cbf550a3b7
REM
REM
REM
REM Total runtime: s
REM
REM
REM ./ABC.cell (e32783a7be585090ebb5c77828425f51)
REM ## AIRSS Version 0.9.3 July 2022 commit b0220bf5cbf550a3b7
REM compiler GCC version 11.4.0
REM options -cpp -imultiarch x86_64-linux-gnu -mtune=generic -march=x86-64 -g -Og -fpre-include=/usr/include/finclude/math-vector-fortran.h
REM cmdline: airss.pl -pp3 -max 1000 -seed ABC 
REM seed 337810486 -44509768 -2009307439 -1982403134 -70486917 -494466421 -251682847 -958180193
REM
REM ABC.pp (b4a81987505b5d62180816d9c6bc34eb)
REM 
CELL 1.54180    2.14267    3.94218    3.58483  107.99909   90.00000   74.23087
LATT -1
SFAC A  B  
A      1  0.3587818014556  0.0151013237470  0.0780854996765 1.0
A      1 -0.3404027681223  0.4134704762527  0.8681218003237 1.0
B      2 -0.3154459159775  0.3635567553185  0.3556412677011 1.0
B      2  0.0105454262380  0.7115740811262  0.2221989465747 1.0
B      2  0.0078336070952  0.7169977188736  0.7240083534257 1.0
B      2  0.3338249493109  0.0650150446820  0.5905660322985 1.0
END
