TITL ABC-17872-7102-114 -0.0000000482 26.8627547367 -39.3475114589 0 0  6 (C2/m) n - 1
REM
REM Run started: at Mon Nov 6 13:24:13 GMT 2023 in /home/michal/install/eddp/airss/examples/1.10
REM pp3 from code version ## 0.9.3 July 2022 commit b0220bf5cbf550a3b7
REM
REM
REM
REM Total runtime: s
REM
REM
REM ./ABC.cell (e32783a7be585090ebb5c77828425f51)
REM ## AIRSS Version 0.9.3 July 2022 commit b0220bf5cbf550a3b7
REM compiler GCC version 11.4.0
REM options -cpp -imultiarch x86_64-linux-gnu -mtune=generic -march=x86-64 -g -Og -fpre-include=/usr/include/finclude/math-vector-fortran.h
REM cmdline: airss.pl -pp3 -max 1000 -seed ABC 
REM seed -1395171586 -2028800840 2090953943 1269310242 1308776356 -887524708 -1745613580 -597050103
REM
REM ABC.pp (b4a81987505b5d62180816d9c6bc34eb)
REM 
CELL 1.54180    2.60205    3.20378    3.71644   73.22364   90.00000   66.04059
LATT -1
SFAC A  B  
A      1  0.1633006186658  0.1822625459991  0.9808863820690 1.0
B      2  0.8307576389437  0.8473485054479  0.8188503890227 1.0
B      2  0.8252008471980  0.8584620889395  0.3057450247186 1.0
B      2  0.4958435930530  0.5171765972289  0.1429223789931 1.0
B      2  0.1633006173035  0.1822625487202  0.4808863826212 1.0
B      2  0.5014003848359  0.5060630136642  0.6560277425753 1.0
END
