TITL ABC-78-8314-119 -0.0000000517 26.8863769211 -39.5117413356 0 0  6 (Cmmm) n - 1
REM
REM Run started: at Fri Oct 6 14:19:05 BST 2023 in /home/michal/install/eddp/airss/examples/1.10
REM pp3 from code version ## 0.9.3 July 2022 commit b0220bf5cbf550a3b7
REM
REM
REM
REM Total runtime: s
REM
REM
REM ./ABC.cell (e32783a7be585090ebb5c77828425f51)
REM ## AIRSS Version 0.9.3 July 2022 commit b0220bf5cbf550a3b7
REM compiler GCC version 11.4.0
REM options -cpp -imultiarch x86_64-linux-gnu -mtune=generic -march=x86-64 -g -Og -fpre-include=/usr/include/finclude/math-vector-fortran.h
REM cmdline: airss.pl -pp3 -max 1000 -seed ABC 
REM seed -712934984 -1075033650 1347083378 1494941171 -330030724 -764556742 1965027856 -58518352
REM
REM ABC.pp (b4a81987505b5d62180816d9c6bc34eb)
REM 
CELL 1.54180    2.61359    2.61274    4.14851   90.00000   71.63896   90.00000
LATT -1
SFAC A  B  
A      1  0.6280056000762  0.8021150997772  0.3637190332783 1.0
B      2  0.2905251564092  0.8021150876874  0.0386799355169 1.0
B      2  0.1280055999896  0.3021151001792  0.3637190331864 1.0
B      2  0.9654860435496  0.8021151119587  0.6887581312626 1.0
B      2  0.7903357039447  0.3021150905020  0.0390588366708 1.0
B      2  0.4656754960307  0.3021151098954  0.6883792300851 1.0
END
