TITL ABC-78-8314-192 -0.0000002489 12.9064662086 -26.8939752405 0 0  3 (I4/mmm) n - 1
REM
REM Run started: at Fri Oct 6 14:20:27 BST 2023 in /home/michal/install/eddp/airss/examples/1.10
REM pp3 from code version ## 0.9.3 July 2022 commit b0220bf5cbf550a3b7
REM
REM
REM
REM Total runtime: s
REM
REM
REM ./ABC.cell (e32783a7be585090ebb5c77828425f51)
REM ## AIRSS Version 0.9.3 July 2022 commit b0220bf5cbf550a3b7
REM compiler GCC version 11.4.0
REM options -cpp -imultiarch x86_64-linux-gnu -mtune=generic -march=x86-64 -g -Og -fpre-include=/usr/include/finclude/math-vector-fortran.h
REM cmdline: airss.pl -pp3 -max 1000 -seed ABC 
REM seed -137808598 -649177355 -1662008131 -1405605571 518660223 -682960517 28951351 -647304531
REM
REM ABC.pp (b4a81987505b5d62180816d9c6bc34eb)
REM 
CELL 1.54180    2.17761    3.12712    2.17761   69.62386   90.00000  110.37612
LATT -1
SFAC A  B  
A      1  0.8875795970816  0.2087140991845  0.0590324492546 1.0
B      2  1.2244211442753  0.8823972591462 -0.2778091169973 1.0
B      2  0.5507380586431  0.5350309416693  0.3958740677428 1.0
END
