TITL ABC-78-8314-840 0.0000000801 32.8050200466 -43.5898134323 0 0  5 (I4/m) n - 1
REM
REM Run started: at Fri Oct 6 14:33:06 BST 2023 in /home/michal/install/eddp/airss/examples/1.10
REM pp3 from code version ## 0.9.3 July 2022 commit b0220bf5cbf550a3b7
REM
REM
REM
REM Total runtime: s
REM
REM
REM ./ABC.cell (e32783a7be585090ebb5c77828425f51)
REM ## AIRSS Version 0.9.3 July 2022 commit b0220bf5cbf550a3b7
REM compiler GCC version 11.4.0
REM options -cpp -imultiarch x86_64-linux-gnu -mtune=generic -march=x86-64 -g -Og -fpre-include=/usr/include/finclude/math-vector-fortran.h
REM cmdline: airss.pl -pp3 -max 1000 -seed ABC 
REM seed 381175746 -1259706900 1946097188 -17866415 1595709820 53948242 1347314404 1532702243
REM
REM ABC.pp (b4a81987505b5d62180816d9c6bc34eb)
REM 
CELL 1.54180    2.21326    4.00583    4.00583   94.37679  106.03675   73.96322
LATT -1
SFAC A  C  
A      1  0.8107460613951  0.1857786392739  0.5587462173255 1.0
A      1  0.6172387544271  0.0241433538251  0.0100963946442 1.0
A      1  0.1658888957547  0.6371287256748  0.7203820447970 1.0
A      1 -0.0276184134312  0.4754934423428  0.1717322235319 1.0
C      2  0.3915639018543  0.8306360388834  0.3652392197013 1.0
END
