TITL ABC-78-8314-604 0.0000001644 53.6122715549 -66.9035927834 0 0  8 (C2/m) n - 1
REM
REM Run started: at Fri Oct 6 14:28:28 BST 2023 in /home/michal/install/eddp/airss/examples/1.10
REM pp3 from code version ## 0.9.3 July 2022 commit b0220bf5cbf550a3b7
REM
REM
REM
REM Total runtime: s
REM
REM
REM ./ABC.cell (e32783a7be585090ebb5c77828425f51)
REM ## AIRSS Version 0.9.3 July 2022 commit b0220bf5cbf550a3b7
REM compiler GCC version 11.4.0
REM options -cpp -imultiarch x86_64-linux-gnu -mtune=generic -march=x86-64 -g -Og -fpre-include=/usr/include/finclude/math-vector-fortran.h
REM cmdline: airss.pl -pp3 -max 1000 -seed ABC 
REM seed 1852622065 -439891742 -74484372 389944623 1958141057 633488326 798812056 -1286261361
REM
REM ABC.pp (b4a81987505b5d62180816d9c6bc34eb)
REM 
CELL 1.54180    4.01226    3.11376    4.89753   71.46459  111.23479   90.00000
LATT -1
SFAC A  C  
A      1  0.4533434878966  0.6594401094618  0.2304564356602 1.0
A      1  0.4462506817367  0.9871923392526  0.5749519493167 1.0
A      1  0.0430693932772  0.5604812607012  0.4283741003536 1.0
A      1  0.4522549231944  0.3226726878937  0.9039912168604 1.0
A      1  0.0370651519807  0.2250009118322  0.0993348337448 1.0
A      1  0.0359765868207  0.8882334909018  0.7728696139142 1.0
C      2  0.7434163190883  0.4438308229154  0.6616749429947 1.0
C      2  0.7459037560055  0.1038427770412  0.3416511071556 1.0
END
