TITL ABC-78-8314-238 0.0000008119 24.8751125107 -42.5392749999 0 0  6 (Amm2) n - 1
REM
REM Run started: at Fri Oct 6 14:21:20 BST 2023 in /home/michal/install/eddp/airss/examples/1.10
REM pp3 from code version ## 0.9.3 July 2022 commit b0220bf5cbf550a3b7
REM
REM
REM
REM Total runtime: s
REM
REM
REM ./ABC.cell (e32783a7be585090ebb5c77828425f51)
REM ## AIRSS Version 0.9.3 July 2022 commit b0220bf5cbf550a3b7
REM compiler GCC version 11.4.0
REM options -cpp -imultiarch x86_64-linux-gnu -mtune=generic -march=x86-64 -g -Og -fpre-include=/usr/include/finclude/math-vector-fortran.h
REM cmdline: airss.pl -pp3 -max 1000 -seed ABC 
REM seed 693145670 1051194889 843929988 -905445399 -711942860 -1169501190 -1690279685 -413118270
REM
REM ABC.pp (b4a81987505b5d62180816d9c6bc34eb)
REM 
CELL 1.54180    2.67815    2.34675    4.12814   73.48667   90.00000   90.00000
LATT -1
SFAC A  B  C  
A      1  0.3844777168676  0.4654798413003  0.0194027922676 1.0
B      2  0.3844777163916  0.1319283294492  0.6865058076110 1.0
B      2  0.8844777166377  0.3000038042641  0.3503549971026 1.0
B      2  0.3844777166353  0.8043916939519  0.3415791623598 1.0
B      2  0.8844777166473  0.9808626660501  0.9886371140152 1.0
C      3  0.8844777168205  0.6480998649844  0.6541628266437 1.0
END
