TITL ABC-10487-7284-2 -0.0000000055 35.3948599578 -85.1056044920 0 0  8 (Pm-3m) n - 1
REM
REM Run started: at Mon Nov 6 13:30:05 GMT 2023 in /home/michal/install/eddp/airss/examples/1.10
REM pp3 from code version ## 0.9.3 July 2022 commit b0220bf5cbf550a3b7
REM
REM
REM
REM Total runtime: s
REM
REM
REM ./ABC.cell (e32783a7be585090ebb5c77828425f51)
REM ## AIRSS Version 0.9.3 July 2022 commit b0220bf5cbf550a3b7
REM compiler GCC version 11.4.0
REM options -cpp -imultiarch x86_64-linux-gnu -mtune=generic -march=x86-64 -g -Og -fpre-include=/usr/include/finclude/math-vector-fortran.h
REM cmdline: airss.pl -pp3 -max 1000 -seed ABC 
REM seed 1905093793 -902277604 113366262 1867176501 -707069637 424666616 70217983 2015241913
REM
REM ABC.pp (b4a81987505b5d62180816d9c6bc34eb)
REM 
CELL 1.54180    2.06836    4.62500    4.13673  116.56505   90.00003   89.99999
LATT -1
SFAC A  B  
A      1  0.1935099630100  0.4284318618580  0.3874882097220 1.0
A      1  0.1935099631396  0.9284318630102  0.6374882147980 1.0
A      1  0.1935099583850  0.9284318619759  0.1374882117558 1.0
A      1  0.1935099652519  0.4284318631308  0.8874882138184 1.0
B      2  0.6935099628969  0.1784318619403  0.5124882113693 1.0
B      2  0.6935099615010  0.6784318631359  0.7624882132561 1.0
B      2  0.6935099649229  0.1784318626917  0.0124882147093 1.0
B      2  0.6935099608927  0.6784318622572  0.2624882105710 1.0
END
