TITL ABC-23792-6234-88 -0.0000042556 10.0268708094 -8.3554660884 0 0  2 (Fm-3m) n - 1
REM
REM Run started: at Mon Nov 6 13:34:09 GMT 2023 in /home/michal/install/eddp/airss/examples/1.10
REM pp3 from code version ## 0.9.3 July 2022 commit b0220bf5cbf550a3b7
REM
REM
REM
REM Total runtime: s
REM
REM
REM ./ABC.cell (e32783a7be585090ebb5c77828425f51)
REM ## AIRSS Version 0.9.3 July 2022 commit b0220bf5cbf550a3b7
REM compiler GCC version 11.4.0
REM options -cpp -imultiarch x86_64-linux-gnu -mtune=generic -march=x86-64 -g -Og -fpre-include=/usr/include/finclude/math-vector-fortran.h
REM cmdline: airss.pl -pp3 -max 1000 -seed ABC 
REM seed 1276440574 -1830071183 -17685727 672937584 -2008183837 203520170 512337229 136985157
REM
REM ABC.pp (b4a81987505b5d62180816d9c6bc34eb)
REM 
CELL 1.54180    1.92110    1.92110    2.71685   90.00000   90.00000   89.99991
LATT -1
SFAC B  
B      1  0.4634947944734  0.3260643996645  0.0563455531562 1.0
B      1  0.9634948055266  0.8260644003355  0.5563455468438 1.0
END
