TITL ABC-78-8314-744 -0.0000006002 11.8743064538 -16.1632560776 0 0  3 (I4/mmm) n - 1
REM
REM Run started: at Fri Oct 6 14:31:16 BST 2023 in /home/michal/install/eddp/airss/examples/1.10
REM pp3 from code version ## 0.9.3 July 2022 commit b0220bf5cbf550a3b7
REM
REM
REM
REM Total runtime: s
REM
REM
REM ./ABC.cell (e32783a7be585090ebb5c77828425f51)
REM ## AIRSS Version 0.9.3 July 2022 commit b0220bf5cbf550a3b7
REM compiler GCC version 11.4.0
REM options -cpp -imultiarch x86_64-linux-gnu -mtune=generic -march=x86-64 -g -Og -fpre-include=/usr/include/finclude/math-vector-fortran.h
REM cmdline: airss.pl -pp3 -max 1000 -seed ABC 
REM seed 11265414 2123721695 310723985 -792317283 576405080 -1248644162 1678218297 -1816408586
REM
REM ABC.pp (b4a81987505b5d62180816d9c6bc34eb)
REM 
CELL 1.54180    1.94239    3.43392    1.94239   73.57119   90.00000   73.57119
LATT -1
SFAC B  C  
B      1  0.4694642567227  0.7157125532361  0.9516465242112 1.0
B      1  0.1749950099577  0.3046510467647  0.6571772748470 1.0
C      2  0.8222296333196  0.0101817999993  0.3044119009417 1.0
END
