TITL ABC-78-8314-419 -0.0000005612 51.0071131072 -67.8521935387 0 0  8 (P1) n - 1
REM
REM Run started: at Fri Oct 6 14:24:50 BST 2023 in /home/michal/install/eddp/airss/examples/1.10
REM pp3 from code version ## 0.9.3 July 2022 commit b0220bf5cbf550a3b7
REM
REM
REM
REM Total runtime: s
REM
REM
REM ./ABC.cell (e32783a7be585090ebb5c77828425f51)
REM ## AIRSS Version 0.9.3 July 2022 commit b0220bf5cbf550a3b7
REM compiler GCC version 11.4.0
REM options -cpp -imultiarch x86_64-linux-gnu -mtune=generic -march=x86-64 -g -Og -fpre-include=/usr/include/finclude/math-vector-fortran.h
REM cmdline: airss.pl -pp3 -max 1000 -seed ABC 
REM seed -1656966756 -965665142 -501627477 336060997 1796688827 -1505154133 -800896193 -1387245122
REM
REM ABC.pp (b4a81987505b5d62180816d9c6bc34eb)
REM 
CELL 1.54180    3.23850    3.50654    4.97224   82.12268   72.01963  103.02728
LATT -1
SFAC A  B  
A      1  0.4175451586105  0.0619793583584  0.2714056066169 1.0
A      1  0.1396513131842  0.5953426026098  0.6479772208491 1.0
A      1  0.7832884347241  0.6015416330826  0.3412863663798 1.0
A      1  0.0823185000445  0.0308926046353  0.9304688357992 1.0
A      1  0.4231323440959  0.6100985557022  0.0279089126247 1.0
A      1  0.7572998803755  0.0282533675218  0.6063591375989 1.0
B      2  0.5656940992090  0.4277069969864  0.7188632605510 1.0
B      2  0.8847963697564  0.4390985811034  0.0178920595803 1.0
END
