TITL ABC-17872-7102-16 -0.0000000015 10.7261778047 -10.0265593061 0 0  2 (Fm-3m) n - 1
REM
REM Run started: at Mon Nov 6 13:22:32 GMT 2023 in /home/michal/install/eddp/airss/examples/1.10
REM pp3 from code version ## 0.9.3 July 2022 commit b0220bf5cbf550a3b7
REM
REM
REM
REM Total runtime: s
REM
REM
REM ./ABC.cell (e32783a7be585090ebb5c77828425f51)
REM ## AIRSS Version 0.9.3 July 2022 commit b0220bf5cbf550a3b7
REM compiler GCC version 11.4.0
REM options -cpp -imultiarch x86_64-linux-gnu -mtune=generic -march=x86-64 -g -Og -fpre-include=/usr/include/finclude/math-vector-fortran.h
REM cmdline: airss.pl -pp3 -max 1000 -seed ABC 
REM seed -1153173273 926886812 179076939 -465622719 -1295223487 -1171542851 2107570350 -1335158624
REM
REM ABC.pp (b4a81987505b5d62180816d9c6bc34eb)
REM 
CELL 1.54180    1.96476    1.96476    2.77859   89.99997   90.00000   90.00000
LATT -1
SFAC C  
C      1  0.6170036499977  0.8908563000096  0.0316371435701 1.0
C      1  0.1170036500023  0.3908562999904  0.5316371564299 1.0
END
