TITL ABC-78-8314-163 -0.0000003130 20.2974505053 -38.9638768721 0 0  5 (Cm) n - 1
REM
REM Run started: at Fri Oct 6 14:19:54 BST 2023 in /home/michal/install/eddp/airss/examples/1.10
REM pp3 from code version ## 0.9.3 July 2022 commit b0220bf5cbf550a3b7
REM
REM
REM
REM Total runtime: s
REM
REM
REM ./ABC.cell (e32783a7be585090ebb5c77828425f51)
REM ## AIRSS Version 0.9.3 July 2022 commit b0220bf5cbf550a3b7
REM compiler GCC version 11.4.0
REM options -cpp -imultiarch x86_64-linux-gnu -mtune=generic -march=x86-64 -g -Og -fpre-include=/usr/include/finclude/math-vector-fortran.h
REM cmdline: airss.pl -pp3 -max 1000 -seed ABC 
REM seed 1493231942 2140601332 -233989195 2024053848 872507253 -784533735 1218600394 -303600718
REM
REM ABC.pp (b4a81987505b5d62180816d9c6bc34eb)
REM 
CELL 1.54180    2.30562    3.06186    3.31597  100.52929  110.34385   67.88260
LATT -1
SFAC A  B  C  
A      1  0.0203707014803  0.8562354811775  0.1382607641758 1.0
B      2  0.6306048759458  0.4313735233023  0.9338671552049 1.0
B      2  0.2396351388463  0.9857759422876  0.7063300999714 1.0
B      2  0.4162266385970  0.2697958983721  0.3435330554858 1.0
C      3  0.8709617451305  0.5833808548604  0.5665882251621 1.0
END
