TITL ABC-23792-6234-52 0.0000002276 30.7591492654 -52.8058700280 0 0  6 (Cm) n - 1
REM
REM Run started: at Mon Nov 6 13:33:30 GMT 2023 in /home/michal/install/eddp/airss/examples/1.10
REM pp3 from code version ## 0.9.3 July 2022 commit b0220bf5cbf550a3b7
REM
REM
REM
REM Total runtime: s
REM
REM
REM ./ABC.cell (e32783a7be585090ebb5c77828425f51)
REM ## AIRSS Version 0.9.3 July 2022 commit b0220bf5cbf550a3b7
REM compiler GCC version 11.4.0
REM options -cpp -imultiarch x86_64-linux-gnu -mtune=generic -march=x86-64 -g -Og -fpre-include=/usr/include/finclude/math-vector-fortran.h
REM cmdline: airss.pl -pp3 -max 1000 -seed ABC 
REM seed -152916769 -1341309936 -1939535870 893571253 -1807128708 425434861 1133763162 346901692
REM
REM ABC.pp (b4a81987505b5d62180816d9c6bc34eb)
REM 
CELL 1.54180    2.15755    4.25909    3.96499  117.50412  105.78777   90.00000
LATT -1
SFAC A  B  C  
A      1  0.9541004727188  0.4491923705311  0.3597414590674 1.0
A      1  0.6496423805101  0.2991013943936  0.7508253242247 1.0
A      1  0.9054232318803  0.8986161658346  0.2623870163988 1.0
B      2  0.5700840910872  0.8299339410868  0.5917087636986 1.0
B      2  0.2119871394906  0.6522297793381  0.8755148325856 1.0
C      3  0.2530070843131  0.0582654488158  0.9575547040249 1.0
END
