TITL ABC-17872-7102-6 0.0000009047 29.3094136688 -57.0717916816 0 0  6 (C2/m) n - 1
REM
REM Run started: at Mon Nov 6 13:22:22 GMT 2023 in /home/michal/install/eddp/airss/examples/1.10
REM pp3 from code version ## 0.9.3 July 2022 commit b0220bf5cbf550a3b7
REM
REM
REM
REM Total runtime: s
REM
REM
REM ./ABC.cell (e32783a7be585090ebb5c77828425f51)
REM ## AIRSS Version 0.9.3 July 2022 commit b0220bf5cbf550a3b7
REM compiler GCC version 11.4.0
REM options -cpp -imultiarch x86_64-linux-gnu -mtune=generic -march=x86-64 -g -Og -fpre-include=/usr/include/finclude/math-vector-fortran.h
REM cmdline: airss.pl -pp3 -max 1000 -seed ABC 
REM seed -706888327 -1129668754 -1795791990 -437405059 -1205076807 1619620651 -413329 -766241795
REM
REM ABC.pp (b4a81987505b5d62180816d9c6bc34eb)
REM 
CELL 1.54180    2.51551    3.30179    3.81746   88.86762   90.00000  112.39139
LATT -1
SFAC A  B  C  
A      1  1.3529666793196  0.4767112493132  0.2016011230933 1.0
A      1  0.9482744540319  0.6673268178706  0.6281664098614 1.0
A      1  0.6506205670190  0.0720190339248  0.9148837667330 1.0
B      2  1.0545781184176  0.8799341273479  0.1926752497024 1.0
B      2  1.2466630145392  0.2641039382689  0.6370922839772 1.0
C      3  0.6506205666727  0.0720190332746  0.4148837666326 1.0
END
