TITL ABC-78-8314-36 -0.0000008097 25.0671814815 -20.8886652211 0 0  5 (Fm-3m) n - 1
REM
REM Run started: at Fri Oct 6 14:17:34 BST 2023 in /home/michal/install/eddp/airss/examples/1.10
REM pp3 from code version ## 0.9.3 July 2022 commit b0220bf5cbf550a3b7
REM
REM
REM
REM Total runtime: s
REM
REM
REM ./ABC.cell (e32783a7be585090ebb5c77828425f51)
REM ## AIRSS Version 0.9.3 July 2022 commit b0220bf5cbf550a3b7
REM compiler GCC version 11.4.0
REM options -cpp -imultiarch x86_64-linux-gnu -mtune=generic -march=x86-64 -g -Og -fpre-include=/usr/include/finclude/math-vector-fortran.h
REM cmdline: airss.pl -pp3 -max 1000 -seed ABC 
REM seed 1769107805 553648514 -2062845443 228266167 -1342222869 -1375903033 1124280945 42218794
REM
REM ABC.pp (b4a81987505b5d62180816d9c6bc34eb)
REM 
CELL 1.54180    1.92110    3.32744    4.29571   97.41755   77.07903   73.22134
LATT -1
SFAC B  
B      1  0.5686932366973  0.4857648219140  0.9076447420121 1.0
B      1  0.3686932414973  0.2857648195393  0.5076447396364 1.0
B      1  0.9686932394928  0.8857648203541  0.7076447387855 1.0
B      1  0.7686932392388  0.6857648198249  0.3076447418916 1.0
B      1  0.1686932430738  0.0857648183676  0.1076447376745 1.0
END
