TITL ABC-10487-7284-9 -0.0000004099 10.0268723052 -8.3554660884 0 0  2 (Fm-3m) n - 1
REM
REM Run started: at Mon Nov 6 13:30:11 GMT 2023 in /home/michal/install/eddp/airss/examples/1.10
REM pp3 from code version ## 0.9.3 July 2022 commit b0220bf5cbf550a3b7
REM
REM
REM
REM Total runtime: s
REM
REM
REM ./ABC.cell (e32783a7be585090ebb5c77828425f51)
REM ## AIRSS Version 0.9.3 July 2022 commit b0220bf5cbf550a3b7
REM compiler GCC version 11.4.0
REM options -cpp -imultiarch x86_64-linux-gnu -mtune=generic -march=x86-64 -g -Og -fpre-include=/usr/include/finclude/math-vector-fortran.h
REM cmdline: airss.pl -pp3 -max 1000 -seed ABC 
REM seed 1738174098 -1326686672 374022381 -145764719 -941879622 133708520 -999888803 1423680094
REM
REM ABC.pp (b4a81987505b5d62180816d9c6bc34eb)
REM 
CELL 1.54180    1.92110    1.92110    2.71685   90.00000   90.00000   90.00000
LATT -1
SFAC B  
B      1  0.9385041478946  0.6867395002867  0.7996954000044 1.0
B      1  0.4385041521054  0.1867394997133  0.2996953999956 1.0
END
