TITL ABC-17872-7102-86 -0.0000002116 32.8887102791 -43.9344248055 0 0  7 (Cm) n - 1
REM
REM Run started: at Mon Nov 6 13:23:45 GMT 2023 in /home/michal/install/eddp/airss/examples/1.10
REM pp3 from code version ## 0.9.3 July 2022 commit b0220bf5cbf550a3b7
REM
REM
REM
REM Total runtime: s
REM
REM
REM ./ABC.cell (e32783a7be585090ebb5c77828425f51)
REM ## AIRSS Version 0.9.3 July 2022 commit b0220bf5cbf550a3b7
REM compiler GCC version 11.4.0
REM options -cpp -imultiarch x86_64-linux-gnu -mtune=generic -march=x86-64 -g -Og -fpre-include=/usr/include/finclude/math-vector-fortran.h
REM cmdline: airss.pl -pp3 -max 1000 -seed ABC 
REM seed 2066478090 265933325 75638926 1759357986 1120385528 -1570930457 -566491724 414554959
REM
REM ABC.pp (b4a81987505b5d62180816d9c6bc34eb)
REM 
CELL 1.54180    2.03191    4.19981    4.40748  114.32419   76.67310  103.99898
LATT -1
SFAC A  B  C  
A      1  0.2541084014361  0.8476079841879  0.4128094958489 1.0
B      2  0.0143093985841  0.6770875827369  0.7218870994486 1.0
B      2  0.9661351235397  0.0292976716267  0.1704457388088 1.0
C      3  0.6126625548351  0.0092197507384  0.8573129550126 1.0
C      3  0.6037309738170  0.4103386701802  0.2762950370137 1.0
C      3  0.8817351471457  0.2642044018157  0.5741524221147 1.0
C      3  0.3370777006423  0.5584060387142  0.9576689517526 1.0
END
