TITL ABC-24937-8325-68 -0.0000000000 10.0268722084 -8.3554660884 0 0  2 (Fm-3m) n - 1
REM
REM Run started: at Mon Nov 6 13:20:17 GMT 2023 in /home/michal/install/eddp/airss/examples/1.10
REM pp3 from code version ## 0.9.3 July 2022 commit b0220bf5cbf550a3b7
REM
REM
REM
REM Total runtime: s
REM
REM
REM ./ABC.cell (e32783a7be585090ebb5c77828425f51)
REM ## AIRSS Version 0.9.3 July 2022 commit b0220bf5cbf550a3b7
REM compiler GCC version 11.4.0
REM options -cpp -imultiarch x86_64-linux-gnu -mtune=generic -march=x86-64 -g -Og -fpre-include=/usr/include/finclude/math-vector-fortran.h
REM cmdline: airss.pl -pp3 -max 1000 -seed ABC 
REM seed -639956243 271360204 -548172318 903907995 -356922450 -2054246118 -255996504 -1084703881
REM
REM ABC.pp (b4a81987505b5d62180816d9c6bc34eb)
REM 
CELL 1.54180    1.92110    1.92110    2.71685   90.00000   90.00000   90.00000
LATT -1
SFAC B  
B      1  0.0247586487610  0.2158766742741  0.6025049545520 1.0
B      1  0.5247586512390  0.7158767257259  0.1025049454480 1.0
END
