TITL ABC-78-8314-896 -0.0000003789 8.8487149013 -21.2764011230 0 0  2 (Pm-3m) n - 1
REM
REM Run started: at Fri Oct 6 14:34:13 BST 2023 in /home/michal/install/eddp/airss/examples/1.10
REM pp3 from code version ## 0.9.3 July 2022 commit b0220bf5cbf550a3b7
REM
REM
REM
REM Total runtime: s
REM
REM
REM ./ABC.cell (e32783a7be585090ebb5c77828425f51)
REM ## AIRSS Version 0.9.3 July 2022 commit b0220bf5cbf550a3b7
REM compiler GCC version 11.4.0
REM options -cpp -imultiarch x86_64-linux-gnu -mtune=generic -march=x86-64 -g -Og -fpre-include=/usr/include/finclude/math-vector-fortran.h
REM cmdline: airss.pl -pp3 -max 1000 -seed ABC 
REM seed 1375062242 1257282478 -1791285296 1598151227 -60758129 -1813154309 -1788465975 1858836930
REM
REM ABC.pp (b4a81987505b5d62180816d9c6bc34eb)
REM 
CELL 1.54180    2.06836    2.06836    2.06836   90.00000   90.00000   90.00000
LATT -1
SFAC A  B  
A      1  0.9499049000000  0.9831305500000  0.0016416500000 1.0
B      2  0.4499049000000  0.4831305500000  0.5016416500000 1.0
END
