TITL ABC-17872-7102-112 -0.0000000041 31.8370844114 -57.1432362030 0 0  6 (Pm-3m) n - 1
REM
REM Run started: at Mon Nov 6 13:24:10 GMT 2023 in /home/michal/install/eddp/airss/examples/1.10
REM pp3 from code version ## 0.9.3 July 2022 commit b0220bf5cbf550a3b7
REM
REM
REM
REM Total runtime: s
REM
REM
REM ./ABC.cell (e32783a7be585090ebb5c77828425f51)
REM ## AIRSS Version 0.9.3 July 2022 commit b0220bf5cbf550a3b7
REM compiler GCC version 11.4.0
REM options -cpp -imultiarch x86_64-linux-gnu -mtune=generic -march=x86-64 -g -Og -fpre-include=/usr/include/finclude/math-vector-fortran.h
REM cmdline: airss.pl -pp3 -max 1000 -seed ABC 
REM seed 30038087 487014685 86449933 -811366265 1199876448 1258962634 -640222683 -1276711966
REM
REM ABC.pp (b4a81987505b5d62180816d9c6bc34eb)
REM 
CELL 1.54180    2.19754    3.10780    4.91385   71.56508   90.00000   90.00000
LATT -1
SFAC A  C  
A      1  0.1287686335693  0.2258095828073  0.3899403500934 1.0
A      1  0.1287686391483  0.5591429124700  0.7232736833402 1.0
A      1  0.1287686272939  0.8924762547236  0.0566070165627 1.0
C      2  0.6287686267986  0.0591429199068  0.7232736833256 1.0
C      2  0.6287686406029  0.3924762453311  0.0566070168372 1.0
C      2  0.6287686325870  0.7258095847611  0.3899403498409 1.0
END
