TITL ABC-24937-8325-123 -0.0000002043 24.0656047212 -25.0328434890 0 0  5 (Cm) n - 1
REM
REM Run started: at Mon Nov 6 13:21:13 GMT 2023 in /home/michal/install/eddp/airss/examples/1.10
REM pp3 from code version ## 0.9.3 July 2022 commit b0220bf5cbf550a3b7
REM
REM
REM
REM Total runtime: s
REM
REM
REM ./ABC.cell (e32783a7be585090ebb5c77828425f51)
REM ## AIRSS Version 0.9.3 July 2022 commit b0220bf5cbf550a3b7
REM compiler GCC version 11.4.0
REM options -cpp -imultiarch x86_64-linux-gnu -mtune=generic -march=x86-64 -g -Og -fpre-include=/usr/include/finclude/math-vector-fortran.h
REM cmdline: airss.pl -pp3 -max 1000 -seed ABC 
REM seed -1900169059 1045040580 -388675155 983811388 -8968354 185092453 442279108 -311287185
REM
REM ABC.pp (b4a81987505b5d62180816d9c6bc34eb)
REM 
CELL 1.54180    1.97510    3.16081    4.06708  101.92311   75.94721   90.00000
LATT -1
SFAC B  C  
B      1 -0.8890678938847  0.8599858034369  0.9780002798207 1.0
C      2  0.0297010836941  0.4223609656460  0.1404625479990 1.0
C      2  0.3023165127567  0.5466162724389  0.5952315363937 1.0
C      2 -0.2732370458060  0.0926691036148  0.7463386988243 1.0
C      2  0.4455033432400  0.9698920548635  0.3088578369623 1.0
END
