TITL ABC-78-8314-667 0.0000000712 35.5966326006 -50.1780323335 0 0  7 (C2/m) n - 1
REM
REM Run started: at Fri Oct 6 14:29:44 BST 2023 in /home/michal/install/eddp/airss/examples/1.10
REM pp3 from code version ## 0.9.3 July 2022 commit b0220bf5cbf550a3b7
REM
REM
REM
REM Total runtime: s
REM
REM
REM ./ABC.cell (e32783a7be585090ebb5c77828425f51)
REM ## AIRSS Version 0.9.3 July 2022 commit b0220bf5cbf550a3b7
REM compiler GCC version 11.4.0
REM options -cpp -imultiarch x86_64-linux-gnu -mtune=generic -march=x86-64 -g -Og -fpre-include=/usr/include/finclude/math-vector-fortran.h
REM cmdline: airss.pl -pp3 -max 1000 -seed ABC 
REM seed -237672318 438907377 1496942560 -1400098714 1278711498 -1287936277 742589371 773362510
REM
REM ABC.pp (b4a81987505b5d62180816d9c6bc34eb)
REM 
CELL 1.54180    2.08021    4.58348    4.27648   64.42521   89.99996   76.88397
LATT -1
SFAC A  B  
A      1  0.5538007694375  0.7894961593706  0.0885363069539 1.0
A      1  0.7099649741136  0.4771671253832  0.8162601522868 1.0
B      2  0.2341497340853  0.4287969253606  0.1705075497472 1.0
B      2  0.1318828709008  0.6333316437126  0.4523982264632 1.0
B      2  0.0296160084414  0.8378663608353  0.7342889073555 1.0
B      2  0.3536153058427  0.1898672259517  0.7386730485356 1.0
B      2  0.9101504371787  0.0767960593860  0.1661234086578 1.0
END
