TITL ABC-78-8314-488 -0.0000012893 24.6039247254 -34.1926601591 0 0  6 (I4/mmm) n - 1
REM
REM Run started: at Fri Oct 6 14:26:13 BST 2023 in /home/michal/install/eddp/airss/examples/1.10
REM pp3 from code version ## 0.9.3 July 2022 commit b0220bf5cbf550a3b7
REM
REM
REM
REM Total runtime: s
REM
REM
REM ./ABC.cell (e32783a7be585090ebb5c77828425f51)
REM ## AIRSS Version 0.9.3 July 2022 commit b0220bf5cbf550a3b7
REM compiler GCC version 11.4.0
REM options -cpp -imultiarch x86_64-linux-gnu -mtune=generic -march=x86-64 -g -Og -fpre-include=/usr/include/finclude/math-vector-fortran.h
REM cmdline: airss.pl -pp3 -max 1000 -seed ABC 
REM seed 1995575203 -1626172622 1987044762 1125357680 1386822871 -433194555 -751621887 547114178
REM
REM ABC.pp (b4a81987505b5d62180816d9c6bc34eb)
REM 
CELL 1.54180    2.73930    2.73930    3.55344   90.00000  112.67127   90.00000
LATT -1
SFAC B  C  
B      1  0.4662614322266  0.2200382495672  0.8964807477916 1.0
B      1  0.9662614344401  0.7200382504328  0.8964807522084 1.0
C      2  0.8218538591847  0.2200382516853  0.6076655999137 1.0
C      2  0.1106690064979  0.2200382532675  0.1852958981098 1.0
C      2  0.3218538601688  0.7200382467325  0.6076656018902 1.0
C      2  0.6106690074820  0.7200382483147  0.1852959000863 1.0
END
