TITL ABC-23792-6234-146 0.0000000302 12.9064671681 -26.8939752407 0 0  3 (I4/mmm) n - 1
REM
REM Run started: at Mon Nov 6 13:35:12 GMT 2023 in /home/michal/install/eddp/airss/examples/1.10
REM pp3 from code version ## 0.9.3 July 2022 commit b0220bf5cbf550a3b7
REM
REM
REM
REM Total runtime: s
REM
REM
REM ./ABC.cell (e32783a7be585090ebb5c77828425f51)
REM ## AIRSS Version 0.9.3 July 2022 commit b0220bf5cbf550a3b7
REM compiler GCC version 11.4.0
REM options -cpp -imultiarch x86_64-linux-gnu -mtune=generic -march=x86-64 -g -Og -fpre-include=/usr/include/finclude/math-vector-fortran.h
REM cmdline: airss.pl -pp3 -max 1000 -seed ABC 
REM seed -1541235827 130105403 -669615719 -271039530 1637235028 810464812 -1853228681 1957472104
REM
REM ABC.pp (b4a81987505b5d62180816d9c6bc34eb)
REM 
CELL 1.54180    2.17762    2.17761    3.12712   69.62392   69.62382   90.00000
LATT -1
SFAC A  B  
A      1  0.2905800665240  0.9958114662427  0.0457577999531 1.0
B      2  0.9537384999738  0.6589698998909  0.7194409332533 1.0
B      2  0.6274216335022  0.3326530338664  0.3720746667936 1.0
END
