TITL ABC-78-8314-876 -0.0000008897 15.6416065370 -24.6790045953 0 0  3 (Immm) n - 1
REM
REM Run started: at Fri Oct 6 14:33:51 BST 2023 in /home/michal/install/eddp/airss/examples/1.10
REM pp3 from code version ## 0.9.3 July 2022 commit b0220bf5cbf550a3b7
REM
REM
REM
REM Total runtime: s
REM
REM
REM ./ABC.cell (e32783a7be585090ebb5c77828425f51)
REM ## AIRSS Version 0.9.3 July 2022 commit b0220bf5cbf550a3b7
REM compiler GCC version 11.4.0
REM options -cpp -imultiarch x86_64-linux-gnu -mtune=generic -march=x86-64 -g -Og -fpre-include=/usr/include/finclude/math-vector-fortran.h
REM cmdline: airss.pl -pp3 -max 1000 -seed ABC 
REM seed -911816194 -53898898 1574799209 19123577 -476628289 -1457881899 -1745792839 -1538911141
REM
REM ABC.pp (b4a81987505b5d62180816d9c6bc34eb)
REM 
CELL 1.54180    2.19114    2.43627    3.35704  111.27591  109.04740   90.00000
LATT -1
SFAC A  C  
A      1  0.4766106630304  0.9568873666577  0.4697886666589 1.0
C      2  0.8096462082323  0.2899229100883  0.1358597535360 1.0
C      2  1.1435751287373  0.6238518232540  0.8037175798051 1.0
END
