TITL ABC-78-8314-770 -0.0000001104 31.8375346189 -43.3432879718 0 0  7 (C2/m) n - 1
REM
REM Run started: at Fri Oct 6 14:31:45 BST 2023 in /home/michal/install/eddp/airss/examples/1.10
REM pp3 from code version ## 0.9.3 July 2022 commit b0220bf5cbf550a3b7
REM
REM
REM
REM Total runtime: s
REM
REM
REM ./ABC.cell (e32783a7be585090ebb5c77828425f51)
REM ## AIRSS Version 0.9.3 July 2022 commit b0220bf5cbf550a3b7
REM compiler GCC version 11.4.0
REM options -cpp -imultiarch x86_64-linux-gnu -mtune=generic -march=x86-64 -g -Og -fpre-include=/usr/include/finclude/math-vector-fortran.h
REM cmdline: airss.pl -pp3 -max 1000 -seed ABC 
REM seed -405558438 -463172986 1588335254 -1128551374 529668214 -320190059 -928127371 -1065310210
REM
REM ABC.pp (b4a81987505b5d62180816d9c6bc34eb)
REM 
CELL 1.54180    2.62057    4.17308    3.21885   82.67364   65.97926   90.00000
LATT -1
SFAC A  B  
A      1  0.5219054571194  0.0223934579423  0.5037763551399 1.0
B      2  0.8072352982855  0.8843621740759  0.9331166751596 1.0
B      2  0.9533883692235  0.2991607148707  0.6408105324912 1.0
B      2  0.3799913453407  0.6001353017613  0.7876045820490 1.0
B      2  0.0904225467500  0.7456262003792  0.3667421785697 1.0
B      2  0.6638195696997  0.4446516120490  0.2199481327375 1.0
B      2  0.2365756135812  0.1604247389217  0.0744360438531 1.0
END
