TITL ABC-78-8314-664 0.0000053923 7.7379286322 -11.3703888396 0 0  2 (P-6m2) n - 1
REM
REM Run started: at Fri Oct 6 14:29:41 BST 2023 in /home/michal/install/eddp/airss/examples/1.10
REM pp3 from code version ## 0.9.3 July 2022 commit b0220bf5cbf550a3b7
REM
REM
REM
REM Total runtime: s
REM
REM
REM ./ABC.cell (e32783a7be585090ebb5c77828425f51)
REM ## AIRSS Version 0.9.3 July 2022 commit b0220bf5cbf550a3b7
REM compiler GCC version 11.4.0
REM options -cpp -imultiarch x86_64-linux-gnu -mtune=generic -march=x86-64 -g -Og -fpre-include=/usr/include/finclude/math-vector-fortran.h
REM cmdline: airss.pl -pp3 -max 1000 -seed ABC 
REM seed -192803923 -2087487947 2033755855 -1226846067 -1080703614 143933786 -548240928 -494341920
REM
REM ABC.pp (b4a81987505b5d62180816d9c6bc34eb)
REM 
CELL 1.54180    1.97934    1.97934    2.28061   90.00000   90.00000   60.00012
LATT -1
SFAC B  C  
B      1  0.0418427410831  0.1159938456086  0.1370513470949 1.0
C      2  0.3751765589169  0.4493276543914  0.6370513529051 1.0
END
