TITL ABC-17872-7102-117 0.0000001121 12.9064671855 -26.8939752409 0 0  3 (I4/mmm) n - 1
REM
REM Run started: at Mon Nov 6 13:24:17 GMT 2023 in /home/michal/install/eddp/airss/examples/1.10
REM pp3 from code version ## 0.9.3 July 2022 commit b0220bf5cbf550a3b7
REM
REM
REM
REM Total runtime: s
REM
REM
REM ./ABC.cell (e32783a7be585090ebb5c77828425f51)
REM ## AIRSS Version 0.9.3 July 2022 commit b0220bf5cbf550a3b7
REM compiler GCC version 11.4.0
REM options -cpp -imultiarch x86_64-linux-gnu -mtune=generic -march=x86-64 -g -Og -fpre-include=/usr/include/finclude/math-vector-fortran.h
REM cmdline: airss.pl -pp3 -max 1000 -seed ABC 
REM seed -685939204 -1796018101 2538361 376788878 -983089265 1623113608 647990960 1055995802
REM
REM ABC.pp (b4a81987505b5d62180816d9c6bc34eb)
REM 
CELL 1.54180    2.17761    3.12712    2.17761   69.62384   90.00000   69.62390
LATT -1
SFAC A  B  
A      1 -0.5562948658941  0.8304722000234  0.6871481318290 1.0
B      2  0.7805467142519  0.1567890374507  0.0239897152584 1.0
B      2  0.1068635516423  0.5041553625260  0.3503065529127 1.0
END
