TITL ABC-78-8314-454 -0.0000061838 30.0806217962 -25.0663982652 0 0  6 (Fm-3m) n - 1
REM
REM Run started: at Fri Oct 6 14:25:32 BST 2023 in /home/michal/install/eddp/airss/examples/1.10
REM pp3 from code version ## 0.9.3 July 2022 commit b0220bf5cbf550a3b7
REM
REM
REM
REM Total runtime: s
REM
REM
REM ./ABC.cell (e32783a7be585090ebb5c77828425f51)
REM ## AIRSS Version 0.9.3 July 2022 commit b0220bf5cbf550a3b7
REM compiler GCC version 11.4.0
REM options -cpp -imultiarch x86_64-linux-gnu -mtune=generic -march=x86-64 -g -Og -fpre-include=/usr/include/finclude/math-vector-fortran.h
REM cmdline: airss.pl -pp3 -max 1000 -seed ABC 
REM seed -355748701 -1926911326 -875499066 299455578 1094531158 -1648193166 -47560231 -781334039
REM
REM ABC.pp (b4a81987505b5d62180816d9c6bc34eb)
REM 
CELL 1.54180    3.32744    1.92110    5.08276  100.89339  102.60438   73.22135
LATT -1
SFAC B  
B      1  0.5969135871583  0.5221274618632  0.0128755821335 1.0
B      1  0.5969135864219  0.8554608137607  0.6795422482564 1.0
B      1  0.0969136135739  0.8554607861042  0.1795422517421 1.0
B      1  0.0969136135809  0.1887941195705  0.8462089184107 1.0
B      1  0.5969135864233  0.1887941472314  0.3462089149242 1.0
B      1  0.0969136128417  0.5221274714701  0.5128755845331 1.0
END
