TITL ABC-78-8314-196 -0.0000038153 11.5553142826 -16.6424337506 0 0  2 (R-3m) n - 1
REM
REM Run started: at Fri Oct 6 14:20:31 BST 2023 in /home/michal/install/eddp/airss/examples/1.10
REM pp3 from code version ## 0.9.3 July 2022 commit b0220bf5cbf550a3b7
REM
REM
REM
REM Total runtime: s
REM
REM
REM ./ABC.cell (e32783a7be585090ebb5c77828425f51)
REM ## AIRSS Version 0.9.3 July 2022 commit b0220bf5cbf550a3b7
REM compiler GCC version 11.4.0
REM options -cpp -imultiarch x86_64-linux-gnu -mtune=generic -march=x86-64 -g -Og -fpre-include=/usr/include/finclude/math-vector-fortran.h
REM cmdline: airss.pl -pp3 -max 1000 -seed ABC 
REM seed -789884583 -1078455185 1710494549 -1475516143 1832269624 -271372615 -2026387257 1485244671
REM
REM ABC.pp (b4a81987505b5d62180816d9c6bc34eb)
REM 
CELL 1.54180    2.14054    2.14054    3.16347  109.77463   90.00005  119.99999
LATT -1
SFAC A  C  
A      1  0.4327642956885  0.5019646452826  0.8894692903225 1.0
C      2  0.9327643043115  0.5019646547174  0.3894693096775 1.0
END
