TITL ABC-23792-6234-6 -0.0000001048 32.3344164553 -46.6073782548 0 0  6 (C2/m) n - 1
REM
REM Run started: at Mon Nov 6 13:32:44 GMT 2023 in /home/michal/install/eddp/airss/examples/1.10
REM pp3 from code version ## 0.9.3 July 2022 commit b0220bf5cbf550a3b7
REM
REM
REM
REM Total runtime: s
REM
REM
REM ./ABC.cell (e32783a7be585090ebb5c77828425f51)
REM ## AIRSS Version 0.9.3 July 2022 commit b0220bf5cbf550a3b7
REM compiler GCC version 11.4.0
REM options -cpp -imultiarch x86_64-linux-gnu -mtune=generic -march=x86-64 -g -Og -fpre-include=/usr/include/finclude/math-vector-fortran.h
REM cmdline: airss.pl -pp3 -max 1000 -seed ABC 
REM seed 1461794145 -541122689 1185693321 162765103 -1670194417 -752651043 1269272033 1318395547
REM
REM ABC.pp (b4a81987505b5d62180816d9c6bc34eb)
REM 
CELL 1.54180    2.14459    4.62357    3.62612  108.79745   72.79965   90.00000
LATT -1
SFAC A  C  
A      1  0.3473505190751  0.8102210651027  0.1948827258061 1.0
A      1  0.6975104465331  0.5311865011652  0.4945628735375 1.0
C      2  0.9887098159028  0.4629501579021  0.9121641362744 1.0
C      2  0.6681929077319  0.1315699929758  0.5531979491608 1.0
C      2  0.0561511520895  0.8784574090104  0.7772814641858 1.0
C      2  0.3766680586676  0.2098375738438  0.1362476510353 1.0
END
