TITL ABC-78-8314-929 -0.0000000588 43.6512888349 -69.6056947966 0 0  8 (Pm) n - 1
REM
REM Run started: at Fri Oct 6 14:34:52 BST 2023 in /home/michal/install/eddp/airss/examples/1.10
REM pp3 from code version ## 0.9.3 July 2022 commit b0220bf5cbf550a3b7
REM
REM
REM
REM Total runtime: s
REM
REM
REM ./ABC.cell (e32783a7be585090ebb5c77828425f51)
REM ## AIRSS Version 0.9.3 July 2022 commit b0220bf5cbf550a3b7
REM compiler GCC version 11.4.0
REM options -cpp -imultiarch x86_64-linux-gnu -mtune=generic -march=x86-64 -g -Og -fpre-include=/usr/include/finclude/math-vector-fortran.h
REM cmdline: airss.pl -pp3 -max 1000 -seed ABC 
REM seed -1592360616 -1281428037 -840308689 -2046146814 -1975389647 2092461060 -884894179 -1754302346
REM
REM ABC.pp (b4a81987505b5d62180816d9c6bc34eb)
REM 
CELL 1.54180    2.20395    3.50328    5.80546  103.13624   90.00000   90.00000
LATT -1
SFAC A  B  C  
A      1  0.0480636501014  0.8329616860650  0.6214998070598 1.0
A      1  0.0480636501338  0.7316841771726  0.0900287979326 1.0
A      1  0.5480636498779  0.2899925054780  0.5004797943390 1.0
A      1  0.5480636499512  0.1840444246959  0.9473029265447 1.0
B      2  0.0480636498722  0.3271629884036  0.7425250097025 1.0
C      3  0.0480636499207  0.2761536493819  0.2287839786967 1.0
C      3  0.5480636500315  0.6425717502315  0.8248456485953 1.0
C      3  0.5480636501113  0.7404691185714  0.3522073371294 1.0
END
