TITL ABC-23792-6234-74 -0.0000014019 26.4022686554 -52.5922923978 0 0  6 (Amm2) n - 1
REM
REM Run started: at Mon Nov 6 13:33:54 GMT 2023 in /home/michal/install/eddp/airss/examples/1.10
REM pp3 from code version ## 0.9.3 July 2022 commit b0220bf5cbf550a3b7
REM
REM
REM
REM Total runtime: s
REM
REM
REM ./ABC.cell (e32783a7be585090ebb5c77828425f51)
REM ## AIRSS Version 0.9.3 July 2022 commit b0220bf5cbf550a3b7
REM compiler GCC version 11.4.0
REM options -cpp -imultiarch x86_64-linux-gnu -mtune=generic -march=x86-64 -g -Og -fpre-include=/usr/include/finclude/math-vector-fortran.h
REM cmdline: airss.pl -pp3 -max 1000 -seed ABC 
REM seed -2137269540 -1692323710 -2138551503 -1347696184 -1139238099 -835004475 -765408287 1414699813
REM
REM ABC.pp (b4a81987505b5d62180816d9c6bc34eb)
REM 
CELL 1.54180    2.57603    4.04605    2.68531   70.61931   90.00000   90.00000
LATT -1
SFAC A  B  C  
A      1  0.6793540726661  0.6662912218476  0.6099642556807 1.0
A      1  0.6793541336548  0.0772272309795  0.9044962446950 1.0
B      2  0.1793541601488  0.9889659557305  0.4486268635418 1.0
B      2  0.6793541383510  0.3757468990214  0.2552363767566 1.0
B      2  0.1793542067480  0.3744183835908  0.7559006357605 1.0
C      3  0.1793541884314  0.6753685088303  0.1054255235654 1.0
END
