TITL ABC-78-8314-892 -0.0000000989 36.3951799936 -60.0635570478 0 0  7 (Cm) n - 1
REM
REM Run started: at Fri Oct 6 14:34:08 BST 2023 in /home/michal/install/eddp/airss/examples/1.10
REM pp3 from code version ## 0.9.3 July 2022 commit b0220bf5cbf550a3b7
REM
REM
REM
REM Total runtime: s
REM
REM
REM ./ABC.cell (e32783a7be585090ebb5c77828425f51)
REM ## AIRSS Version 0.9.3 July 2022 commit b0220bf5cbf550a3b7
REM compiler GCC version 11.4.0
REM options -cpp -imultiarch x86_64-linux-gnu -mtune=generic -march=x86-64 -g -Og -fpre-include=/usr/include/finclude/math-vector-fortran.h
REM cmdline: airss.pl -pp3 -max 1000 -seed ABC 
REM seed -379980356 -1753432229 -1912177936 1556111446 -1626797186 1964733051 1520827697 -551845454
REM
REM ABC.pp (b4a81987505b5d62180816d9c6bc34eb)
REM 
CELL 1.54180    2.23882    3.60617    5.05643  109.26179   90.00000   71.91574
LATT -1
SFAC A  B  C  
A      1  0.7418748452414  0.8800803511756  0.6512237990918 1.0
A      1  0.5032526826575  0.3573246774085  0.2572059922238 1.0
A      1  0.2761227216489  0.8115846002944  0.0076695593690 1.0
B      2  0.8168454187327  0.7301392000789  0.2453085082860 1.0
C      3  0.4647918107971  0.4342464204313  0.6473240548850 1.0
C      3  0.1638182671025  0.0361935099218  0.4064734738350 1.0
C      3  0.0230156538200  0.3177987406895  0.9293282123094 1.0
END
