TITL ABC-78-8314-608 -0.0000000565 21.2247229986 -38.0954908020 0 0  4 (Pm-3m) n - 1
REM
REM Run started: at Fri Oct 6 14:28:33 BST 2023 in /home/michal/install/eddp/airss/examples/1.10
REM pp3 from code version ## 0.9.3 July 2022 commit b0220bf5cbf550a3b7
REM
REM
REM
REM Total runtime: s
REM
REM
REM ./ABC.cell (e32783a7be585090ebb5c77828425f51)
REM ## AIRSS Version 0.9.3 July 2022 commit b0220bf5cbf550a3b7
REM compiler GCC version 11.4.0
REM options -cpp -imultiarch x86_64-linux-gnu -mtune=generic -march=x86-64 -g -Og -fpre-include=/usr/include/finclude/math-vector-fortran.h
REM cmdline: airss.pl -pp3 -max 1000 -seed ABC 
REM seed -1701641856 2087876886 1386758659 -207505873 -1716080450 1276158612 992800313 -1944799796
REM
REM ABC.pp (b4a81987505b5d62180816d9c6bc34eb)
REM 
CELL 1.54180    2.19754    3.10780    3.10780   90.00000   90.00000   90.00000
LATT -1
SFAC A  C  
A      1  0.5611988491774  0.6406807579002  0.7082269001041 1.0
A      1  0.5611988488971  0.1406807427054  0.2082269002301 1.0
C      2  0.0611988510971  0.6406807389495  0.2082268998436 1.0
C      2  0.0611988508283  0.1406807604449  0.7082268998221 1.0
END
