TITL ABC-78-8314-583 -0.0000007097 30.5770653874 -48.4487295479 0 0  7 (Cm) n - 1
REM
REM Run started: at Fri Oct 6 14:28:03 BST 2023 in /home/michal/install/eddp/airss/examples/1.10
REM pp3 from code version ## 0.9.3 July 2022 commit b0220bf5cbf550a3b7
REM
REM
REM
REM Total runtime: s
REM
REM
REM ./ABC.cell (e32783a7be585090ebb5c77828425f51)
REM ## AIRSS Version 0.9.3 July 2022 commit b0220bf5cbf550a3b7
REM compiler GCC version 11.4.0
REM options -cpp -imultiarch x86_64-linux-gnu -mtune=generic -march=x86-64 -g -Og -fpre-include=/usr/include/finclude/math-vector-fortran.h
REM cmdline: airss.pl -pp3 -max 1000 -seed ABC 
REM seed 960569439 -281689604 -662399973 1605405592 188620072 -1265076066 -376637711 870043408
REM
REM ABC.pp (b4a81987505b5d62180816d9c6bc34eb)
REM 
CELL 1.54180    2.06762    3.43632    4.58511   99.72218   90.00000  107.50858
LATT -1
SFAC A  B  C  
A      1  0.2464821212425  0.5555955710576  0.2948132746153 1.0
B      2  0.9557883507306  0.9742080300327  0.4468181908582 1.0
B      2  0.8204879441375  0.7036072168491  0.9972253730167 1.0
C      3  0.3812861143867  0.8252035573452  0.7212826215175 1.0
C      3  0.1225088833355  0.3076490952408  0.8999656328545 1.0
C      3  0.6390158825959  0.3406630937634  0.5703238389863 1.0
C      3  0.4984945035713  0.0596203357112  0.1682385681514 1.0
END
