TITL ABC-78-8314-782 -0.0000000844 39.5960072811 -66.6980414945 0 0  7 (C2/m) n - 1
REM
REM Run started: at Fri Oct 6 14:32:00 BST 2023 in /home/michal/install/eddp/airss/examples/1.10
REM pp3 from code version ## 0.9.3 July 2022 commit b0220bf5cbf550a3b7
REM
REM
REM
REM Total runtime: s
REM
REM
REM ./ABC.cell (e32783a7be585090ebb5c77828425f51)
REM ## AIRSS Version 0.9.3 July 2022 commit b0220bf5cbf550a3b7
REM compiler GCC version 11.4.0
REM options -cpp -imultiarch x86_64-linux-gnu -mtune=generic -march=x86-64 -g -Og -fpre-include=/usr/include/finclude/math-vector-fortran.h
REM cmdline: airss.pl -pp3 -max 1000 -seed ABC 
REM seed 1223397890 -2019340778 1612348867 27183190 -1487136001 -1790898970 178231830 -548392210
REM
REM ABC.pp (b4a81987505b5d62180816d9c6bc34eb)
REM 
CELL 1.54180    2.19862    5.13482    3.89952  101.71428   73.62577   77.63787
LATT -1
SFAC A  B  
A      1 -0.0940252135640  0.7556566672048  0.0795279598045 1.0
A      1  0.4260589616915  0.0091217117612  0.7858945650711 1.0
A      1  0.5823208565929  0.1950443718190  0.2874481148526 1.0
A      1  0.2586669284496  0.6344320758953  0.4953682670885 1.0
A      1 -0.2614172469731  0.3809670299822  0.7890016642627 1.0
B      2 -0.8641547580588  0.9655804977997  0.4098632184092 1.0
B      2  0.0287964718617  0.4245082455378  0.1650330105114 1.0
END
