TITL ABC-78-8314-40 0.0000001581 28.7130214748 -48.7068204427 0 0  7 (Cm) n - 1
REM
REM Run started: at Fri Oct 6 14:17:39 BST 2023 in /home/michal/install/eddp/airss/examples/1.10
REM pp3 from code version ## 0.9.3 July 2022 commit b0220bf5cbf550a3b7
REM
REM
REM
REM Total runtime: s
REM
REM
REM ./ABC.cell (e32783a7be585090ebb5c77828425f51)
REM ## AIRSS Version 0.9.3 July 2022 commit b0220bf5cbf550a3b7
REM compiler GCC version 11.4.0
REM options -cpp -imultiarch x86_64-linux-gnu -mtune=generic -march=x86-64 -g -Og -fpre-include=/usr/include/finclude/math-vector-fortran.h
REM cmdline: airss.pl -pp3 -max 1000 -seed ABC 
REM seed -1030273236 1851150987 779014035 -2018400732 270200240 735758976 625376664 -1460134070
REM
REM ABC.pp (b4a81987505b5d62180816d9c6bc34eb)
REM 
CELL 1.54180    2.55413    3.23257    3.80260   94.97690   90.00000   66.73015
LATT -1
SFAC A  B  C  
A      1  0.4104144088961  0.7898758649411  0.3722997027175 1.0
B      2  0.0790751775298  0.4525543264429  0.1693375584450 1.0
B      2  0.9889679717484  0.6327687433788  0.6521044695078 1.0
B      2  0.2786364767233  0.0534317373679  0.7996038765653 1.0
B      2  0.7033819859317  0.2039407147570  0.4602976016956 1.0
C      3  0.8226135158057  0.9654776591558  0.0484623992832 1.0
C      3  0.5504197633650  0.5098651539564  0.8678767917857 1.0
END
