TITL ABC-24937-8325-42 -0.0000001416 16.0892655790 -15.0398389586 0 0  3 (Fm-3m) n - 1
REM
REM Run started: at Mon Nov 6 13:19:49 GMT 2023 in /home/michal/install/eddp/airss/examples/1.10
REM pp3 from code version ## 0.9.3 July 2022 commit b0220bf5cbf550a3b7
REM
REM
REM
REM Total runtime: s
REM
REM
REM ./ABC.cell (e32783a7be585090ebb5c77828425f51)
REM ## AIRSS Version 0.9.3 July 2022 commit b0220bf5cbf550a3b7
REM compiler GCC version 11.4.0
REM options -cpp -imultiarch x86_64-linux-gnu -mtune=generic -march=x86-64 -g -Og -fpre-include=/usr/include/finclude/math-vector-fortran.h
REM cmdline: airss.pl -pp3 -max 1000 -seed ABC 
REM seed -918757315 -1471768897 -832438001 304562196 -1619767882 280629301 -1551352419 -220508727
REM
REM ABC.pp (b4a81987505b5d62180816d9c6bc34eb)
REM 
CELL 1.54180    1.96476    3.40307    2.77859  114.09485   90.00000  106.77864
LATT -1
SFAC C  
C      1  0.6374841165631  0.6513185150689  1.0489213850032 1.0
C      1  0.9708174679602  0.3179852035939  0.3822546728194 1.0
C      1  0.3041508154767  0.9846518813372  1.7155880421775 1.0
END
