TITL ABC-24937-8325-45 0.0000014283 12.9064673272 -26.8939752412 0 0  3 (I4/mmm) n - 1
REM
REM Run started: at Mon Nov 6 13:19:52 GMT 2023 in /home/michal/install/eddp/airss/examples/1.10
REM pp3 from code version ## 0.9.3 July 2022 commit b0220bf5cbf550a3b7
REM
REM
REM
REM Total runtime: s
REM
REM
REM ./ABC.cell (e32783a7be585090ebb5c77828425f51)
REM ## AIRSS Version 0.9.3 July 2022 commit b0220bf5cbf550a3b7
REM compiler GCC version 11.4.0
REM options -cpp -imultiarch x86_64-linux-gnu -mtune=generic -march=x86-64 -g -Og -fpre-include=/usr/include/finclude/math-vector-fortran.h
REM cmdline: airss.pl -pp3 -max 1000 -seed ABC 
REM seed 728933388 274575593 -972395075 2011279461 1418797432 615150734 -1139234593 -1318344340
REM
REM ABC.pp (b4a81987505b5d62180816d9c6bc34eb)
REM 
CELL 1.54180    2.17761    2.17761    3.12712   69.62386   69.62388   90.00000
LATT -1
SFAC A  B  
A      1  0.1570539474086  0.8457688665045  0.5145446672421 1.0
B      2  0.8202123601451  0.5089272943640  0.1882278112090 1.0
B      2  0.4938954924463  0.1826104391315  0.8408615215489 1.0
END
