TITL ABC-17872-7102-31 0.0000000302 56.0145335723 -65.2947978761 0 0  8 (P1) n - 1
REM
REM Run started: at Mon Nov 6 13:22:46 GMT 2023 in /home/michal/install/eddp/airss/examples/1.10
REM pp3 from code version ## 0.9.3 July 2022 commit b0220bf5cbf550a3b7
REM
REM
REM
REM Total runtime: s
REM
REM
REM ./ABC.cell (e32783a7be585090ebb5c77828425f51)
REM ## AIRSS Version 0.9.3 July 2022 commit b0220bf5cbf550a3b7
REM compiler GCC version 11.4.0
REM options -cpp -imultiarch x86_64-linux-gnu -mtune=generic -march=x86-64 -g -Og -fpre-include=/usr/include/finclude/math-vector-fortran.h
REM cmdline: airss.pl -pp3 -max 1000 -seed ABC 
REM seed -542349947 -332181307 2129200904 -1066864204 642568762 -512186639 -986464003 -1209340356
REM
REM ABC.pp (b4a81987505b5d62180816d9c6bc34eb)
REM 
CELL 1.54180    3.39381    3.65500    5.61923  106.24126   75.63271   66.49607
LATT -1
SFAC A  B  
A      1  0.5336745394948  0.4082286683229  0.3325745635787 1.0
A      1  0.6721601151412  0.3183990077619  0.9246327188439 1.0
A      1  0.0721570898308  0.5964647255684  0.7427088819150 1.0
A      1  0.9755651503768  0.0727391878064  0.4970998323332 1.0
A      1  0.9018382846794  0.6976937666674  0.1648610616488 1.0
A      1  0.4494450898211  0.9310190341639  0.6844321073070 1.0
A      1  0.2899169466184  0.0259291346976  0.0935821687603 1.0
B      2  0.9680035840374  0.5089899750114  0.4177933656131 1.0
END
