TITL ABC-17872-7102-102 -0.0000021842 16.0981858216 -29.0039854837 0 0  3 (I4/mmm) n - 1
REM
REM Run started: at Mon Nov 6 13:24:00 GMT 2023 in /home/michal/install/eddp/airss/examples/1.10
REM pp3 from code version ## 0.9.3 July 2022 commit b0220bf5cbf550a3b7
REM
REM
REM
REM Total runtime: s
REM
REM
REM ./ABC.cell (e32783a7be585090ebb5c77828425f51)
REM ## AIRSS Version 0.9.3 July 2022 commit b0220bf5cbf550a3b7
REM compiler GCC version 11.4.0
REM options -cpp -imultiarch x86_64-linux-gnu -mtune=generic -march=x86-64 -g -Og -fpre-include=/usr/include/finclude/math-vector-fortran.h
REM cmdline: airss.pl -pp3 -max 1000 -seed ABC 
REM seed -1246530322 -964428065 -141902402 -2141508480 1730934751 -1091237362 -1636239071 -1275225240
REM
REM ABC.pp (b4a81987505b5d62180816d9c6bc34eb)
REM 
CELL 1.54180    2.10252    2.10252    3.93343  105.50141  105.50140   90.00009
LATT -1
SFAC A  B  
A      1  0.6417951357459  0.4028583691054  0.6193218038034 1.0
A      1  0.3584947320536  0.1195579653395  0.0527209962184 1.0
B      2  0.0001449322005  0.7612081655551  0.3360213999782 1.0
END
