TITL ABC-78-8314-242 -0.0000000036 39.5960071178 -66.6980414945 0 0  7 (C2/m) n - 1
REM
REM Run started: at Fri Oct 6 14:21:25 BST 2023 in /home/michal/install/eddp/airss/examples/1.10
REM pp3 from code version ## 0.9.3 July 2022 commit b0220bf5cbf550a3b7
REM
REM
REM
REM Total runtime: s
REM
REM
REM ./ABC.cell (e32783a7be585090ebb5c77828425f51)
REM ## AIRSS Version 0.9.3 July 2022 commit b0220bf5cbf550a3b7
REM compiler GCC version 11.4.0
REM options -cpp -imultiarch x86_64-linux-gnu -mtune=generic -march=x86-64 -g -Og -fpre-include=/usr/include/finclude/math-vector-fortran.h
REM cmdline: airss.pl -pp3 -max 1000 -seed ABC 
REM seed 838745816 52296176 -561590927 1710203719 -2058266039 225642365 -270423289 1746660585
REM
REM ABC.pp (b4a81987505b5d62180816d9c6bc34eb)
REM 
CELL 1.54180    2.19862    3.89952    5.13482  108.88922   77.63787  106.37423
LATT -1
SFAC A  B  
A      1  0.0095931981732  0.0488441457179  0.0801648453518 1.0
A      1  0.7831424208765  0.3424775430475  0.8266998049530 1.0
A      1  0.1253269708833  0.8409239862834  0.6407771421338 1.0
A      1  0.2410607456566  0.6330038244788  0.2013894391703 1.0
A      1  0.4675115200374  0.3393704300774  0.4548544854017 1.0
B      2  0.4493874855947  0.7185088981095  0.8702410302704 1.0
B      2  0.8012664587782  0.9633390722855  0.4113132527190 1.0
END
