TITL ABC-10487-7284-15 0.0000003495 20.0537435735 -16.7109321768 0 0  4 (Fm-3m) n - 1
REM
REM Run started: at Mon Nov 6 13:30:17 GMT 2023 in /home/michal/install/eddp/airss/examples/1.10
REM pp3 from code version ## 0.9.3 July 2022 commit b0220bf5cbf550a3b7
REM
REM
REM
REM Total runtime: s
REM
REM
REM ./ABC.cell (e32783a7be585090ebb5c77828425f51)
REM ## AIRSS Version 0.9.3 July 2022 commit b0220bf5cbf550a3b7
REM compiler GCC version 11.4.0
REM options -cpp -imultiarch x86_64-linux-gnu -mtune=generic -march=x86-64 -g -Og -fpre-include=/usr/include/finclude/math-vector-fortran.h
REM cmdline: airss.pl -pp3 -max 1000 -seed ABC 
REM seed 767225709 -84453062 1751373566 -646006346 626458946 1770510597 -1534150612 1354485698
REM
REM ABC.pp (b4a81987505b5d62180816d9c6bc34eb)
REM 
CELL 1.54180    2.71685    3.32744    2.71685   65.90516   89.99996  114.09484
LATT -1
SFAC B  
B      1  0.7551400448951  0.8207652455620  0.5529380595434 1.0
B      1  0.2551400441596  0.8207652456020  0.0529380571926 1.0
B      1  0.5051400550880  0.3207652544372  0.3029380404284 1.0
B      1  0.0051400558573  0.3207652543988  0.8029380428356 1.0
END
