TITL ABC-78-8314-72 -0.0000000501 26.4411202315 -34.1745247126 0 0  5 (C2/m) n - 1
REM
REM Run started: at Fri Oct 6 14:18:14 BST 2023 in /home/michal/install/eddp/airss/examples/1.10
REM pp3 from code version ## 0.9.3 July 2022 commit b0220bf5cbf550a3b7
REM
REM
REM
REM Total runtime: s
REM
REM
REM ./ABC.cell (e32783a7be585090ebb5c77828425f51)
REM ## AIRSS Version 0.9.3 July 2022 commit b0220bf5cbf550a3b7
REM compiler GCC version 11.4.0
REM options -cpp -imultiarch x86_64-linux-gnu -mtune=generic -march=x86-64 -g -Og -fpre-include=/usr/include/finclude/math-vector-fortran.h
REM cmdline: airss.pl -pp3 -max 1000 -seed ABC 
REM seed 399571909 -2061615133 -1788546636 -247870855 447155791 -1784538543 -1301718854 1175484175
REM
REM ABC.pp (b4a81987505b5d62180816d9c6bc34eb)
REM 
CELL 1.54180    2.11569    3.37444    4.08859  103.02467  104.99481   71.73046
LATT -1
SFAC A  C  
A      1  0.8698499422021  0.3440565937333  0.3417414609756 1.0
C      2  0.0701854844148  0.7446597598046  0.1430156974218 1.0
C      2  0.2698161386109  0.1447819080476  0.9423991669919 1.0
C      2  0.4698837415309  0.5433312932355  0.7410837522478 1.0
C      2  0.6695143932413  0.9434534451790  0.5404672223629 1.0
END
