TITL ABC-23792-6234-23 -0.0000000297 37.2895692046 -64.7393057018 0 0  7 (Imm2) n - 1
REM
REM Run started: at Mon Nov 6 13:32:59 GMT 2023 in /home/michal/install/eddp/airss/examples/1.10
REM pp3 from code version ## 0.9.3 July 2022 commit b0220bf5cbf550a3b7
REM
REM
REM
REM Total runtime: s
REM
REM
REM ./ABC.cell (e32783a7be585090ebb5c77828425f51)
REM ## AIRSS Version 0.9.3 July 2022 commit b0220bf5cbf550a3b7
REM compiler GCC version 11.4.0
REM options -cpp -imultiarch x86_64-linux-gnu -mtune=generic -march=x86-64 -g -Og -fpre-include=/usr/include/finclude/math-vector-fortran.h
REM cmdline: airss.pl -pp3 -max 1000 -seed ABC 
REM seed -1354741287 542659242 -1630141078 -1058863072 96633419 -1197210552 -1082569801 -181180754
REM
REM ABC.pp (b4a81987505b5d62180816d9c6bc34eb)
REM 
CELL 1.54180    2.21408    4.31160    4.31160   80.70920   75.12221  104.87779
LATT -1
SFAC A  B  C  
A      1  0.4994339759016  0.7509399021635  0.3357616217885 1.0
A      1  0.9994340110631  0.2483002905788  0.8331219398817 1.0
A      1  0.2170418032469  0.1845093513304  0.3341154162655 1.0
A      1  0.7818262181400  0.7492938019477  0.7693310370965 1.0
B      2  0.2500912902490  0.9327613183862  0.0162684093165 1.0
B      2  0.7487766935740  0.4314466727317  0.5175829570119 1.0
C      3  0.9994340078255  0.5265364628617  0.1113581186393 1.0
END
