TITL ABC-78-8314-375 -0.0000000030 8.8487149885 -21.2764011230 0 0  2 (Pm-3m) n - 1
REM
REM Run started: at Fri Oct 6 14:24:00 BST 2023 in /home/michal/install/eddp/airss/examples/1.10
REM pp3 from code version ## 0.9.3 July 2022 commit b0220bf5cbf550a3b7
REM
REM
REM
REM Total runtime: s
REM
REM
REM ./ABC.cell (e32783a7be585090ebb5c77828425f51)
REM ## AIRSS Version 0.9.3 July 2022 commit b0220bf5cbf550a3b7
REM compiler GCC version 11.4.0
REM options -cpp -imultiarch x86_64-linux-gnu -mtune=generic -march=x86-64 -g -Og -fpre-include=/usr/include/finclude/math-vector-fortran.h
REM cmdline: airss.pl -pp3 -max 1000 -seed ABC 
REM seed -382565122 -1230497626 286837969 -801391831 -1133804404 -2131180781 -1473653824 842775554
REM
REM ABC.pp (b4a81987505b5d62180816d9c6bc34eb)
REM 
CELL 1.54180    2.06836    2.06836    2.06836   89.99999   89.99999   89.99999
LATT -1
SFAC A  B  
A      1  0.9912742517530  0.3333634001972  0.1948074002155 1.0
B      2  0.4912742482470  0.8333633998028  0.6948073997845 1.0
END
