TITL ABC-17872-7102-7 0.0000004334 12.7593153239 -14.5937236424 0 0  3 (Amm2) n - 1
REM
REM Run started: at Mon Nov 6 13:22:23 GMT 2023 in /home/michal/install/eddp/airss/examples/1.10
REM pp3 from code version ## 0.9.3 July 2022 commit b0220bf5cbf550a3b7
REM
REM
REM
REM Total runtime: s
REM
REM
REM ./ABC.cell (e32783a7be585090ebb5c77828425f51)
REM ## AIRSS Version 0.9.3 July 2022 commit b0220bf5cbf550a3b7
REM compiler GCC version 11.4.0
REM options -cpp -imultiarch x86_64-linux-gnu -mtune=generic -march=x86-64 -g -Og -fpre-include=/usr/include/finclude/math-vector-fortran.h
REM cmdline: airss.pl -pp3 -max 1000 -seed ABC 
REM seed 79763988 1554967972 -1475075538 1764967754 -497342199 -1282079922 912459422 533285897
REM
REM ABC.pp (b4a81987505b5d62180816d9c6bc34eb)
REM 
CELL 1.54180    2.36420    1.95650    3.00106   90.00029  113.19699   90.00000
LATT -1
SFAC B  C  
B      1  0.9925267936012  0.9246986468993  0.4493645888708 1.0
B      1  0.2939496937694  0.4246960298802  0.0522103949653 1.0
C      2  0.6913030126294  0.9246935232205  0.8469170161639 1.0
END
