TITL ABC-78-8314-799 0.0000022805 18.9641545769 -19.2473767913 0 0  4 (Amm2) n - 1
REM
REM Run started: at Fri Oct 6 14:32:18 BST 2023 in /home/michal/install/eddp/airss/examples/1.10
REM pp3 from code version ## 0.9.3 July 2022 commit b0220bf5cbf550a3b7
REM
REM
REM
REM Total runtime: s
REM
REM
REM ./ABC.cell (e32783a7be585090ebb5c77828425f51)
REM ## AIRSS Version 0.9.3 July 2022 commit b0220bf5cbf550a3b7
REM compiler GCC version 11.4.0
REM options -cpp -imultiarch x86_64-linux-gnu -mtune=generic -march=x86-64 -g -Og -fpre-include=/usr/include/finclude/math-vector-fortran.h
REM cmdline: airss.pl -pp3 -max 1000 -seed ABC 
REM seed -1760910429 1821732151 -377303139 738803926 -355548221 865851087 1353378281 1019729933
REM
REM ABC.pp (b4a81987505b5d62180816d9c6bc34eb)
REM 
CELL 1.54180    1.97144    3.16853    3.16853  106.63420   90.00003   90.00003
LATT -1
SFAC B  C  
B      1  0.4179283625108  0.6375089362650  0.6066543966770 1.0
C      2  0.9179288759373  0.0656464406708  0.6379711503437 1.0
C      2  0.4179290852761  0.2131278068909  0.1822731495040 1.0
C      2  0.9179288762758  0.6688258161733  0.0347918034753 1.0
END
