TITL ABC-78-8314-185 -0.0000015390 40.1074899362 -33.4218643538 0 0  8 (Fm-3m) n - 1
REM
REM Run started: at Fri Oct 6 14:20:19 BST 2023 in /home/michal/install/eddp/airss/examples/1.10
REM pp3 from code version ## 0.9.3 July 2022 commit b0220bf5cbf550a3b7
REM
REM
REM
REM Total runtime: s
REM
REM
REM ./ABC.cell (e32783a7be585090ebb5c77828425f51)
REM ## AIRSS Version 0.9.3 July 2022 commit b0220bf5cbf550a3b7
REM compiler GCC version 11.4.0
REM options -cpp -imultiarch x86_64-linux-gnu -mtune=generic -march=x86-64 -g -Og -fpre-include=/usr/include/finclude/math-vector-fortran.h
REM cmdline: airss.pl -pp3 -max 1000 -seed ABC 
REM seed 1850407334 -1999987683 -1447726234 -657767813 -1416397101 -2057222103 1781462181 -1732067441
REM
REM ABC.pp (b4a81987505b5d62180816d9c6bc34eb)
REM 
CELL 1.54180    1.92110    4.70572    4.70572   70.52878   90.00000   90.00000
LATT -1
SFAC B  
B      1  0.1420164815519  0.1758997131212  0.1770932396873 1.0
B      1  0.6420164936224  0.8008997135926  0.3020932374173 1.0
B      1  0.6420164935461  0.5508997133367  0.0520932363197 1.0
B      1  0.6420164929386  0.3008997127781  0.8020932372661 1.0
B      1  0.1420164814367  0.6758997145343  0.6770932376565 1.0
B      1  0.1420164817015  0.9258997103289  0.9270932370948 1.0
B      1  0.6420164934708  0.0508997126543  0.5520932385776 1.0
B      1  0.1420164817319  0.4258997096538  0.4270932359808 1.0
END
