TITL ABC-78-8314-24 -0.0000007022 16.0981845500 -29.0039854837 0 0  3 (I4/mmm) n - 1
REM
REM Run started: at Fri Oct 6 14:17:22 BST 2023 in /home/michal/install/eddp/airss/examples/1.10
REM pp3 from code version ## 0.9.3 July 2022 commit b0220bf5cbf550a3b7
REM
REM
REM
REM Total runtime: s
REM
REM
REM ./ABC.cell (e32783a7be585090ebb5c77828425f51)
REM ## AIRSS Version 0.9.3 July 2022 commit b0220bf5cbf550a3b7
REM compiler GCC version 11.4.0
REM options -cpp -imultiarch x86_64-linux-gnu -mtune=generic -march=x86-64 -g -Og -fpre-include=/usr/include/finclude/math-vector-fortran.h
REM cmdline: airss.pl -pp3 -max 1000 -seed ABC 
REM seed 2130305678 504406219 -142540045 -568765406 545667573 -1653929812 1571498827 -521770728
REM
REM ABC.pp (b4a81987505b5d62180816d9c6bc34eb)
REM 
CELL 1.54180    2.10252    2.10252    3.93343  105.50142  105.50142   90.00004
LATT -1
SFAC A  B  
A      1  0.4763564319014  0.3252985701690  0.1852883599127 1.0
A      1  0.7596568386092  0.6085989768751  0.7518891733274 1.0
B      2  0.1180066294894  0.9669487529559  0.4685887667599 1.0
END
