TITL ABC-78-8314-586 -0.0000049286 22.2231090917 -51.2797682535 0 0  6 (P-3m1) n - 1
REM
REM Run started: at Fri Oct 6 14:28:06 BST 2023 in /home/michal/install/eddp/airss/examples/1.10
REM pp3 from code version ## 0.9.3 July 2022 commit b0220bf5cbf550a3b7
REM
REM
REM
REM Total runtime: s
REM
REM
REM ./ABC.cell (e32783a7be585090ebb5c77828425f51)
REM ## AIRSS Version 0.9.3 July 2022 commit b0220bf5cbf550a3b7
REM compiler GCC version 11.4.0
REM options -cpp -imultiarch x86_64-linux-gnu -mtune=generic -march=x86-64 -g -Og -fpre-include=/usr/include/finclude/math-vector-fortran.h
REM cmdline: airss.pl -pp3 -max 1000 -seed ABC 
REM seed -1485007802 -55215226 1866041504 1052023437 -718214602 1320151830 -1725014365 -918400004
REM
REM ABC.pp (b4a81987505b5d62180816d9c6bc34eb)
REM 
CELL 1.54180    2.73912    2.73912    3.42020   90.00000   90.00000  120.00000
LATT -1
SFAC A  B  C  
A      1  0.3951202333026  0.2091833499983  0.9386295017740 1.0
B      2  0.3951202334491  0.2091833499041  0.4386294977206 1.0
B      2  0.0617868957414  0.5425166874030  0.7442252771520 1.0
B      2  0.7284535708441  0.8758500126901  0.1330337225411 1.0
C      3  0.7284535623564  0.8758500208705  0.6135722185739 1.0
C      3  0.0617869043063  0.5425166791341  0.2636867822383 1.0
END
