TITL ABC-78-8314-945 -0.0000001319 15.6416063282 -24.6790045951 0 0  3 (Immm) n - 1
REM
REM Run started: at Fri Oct 6 14:35:09 BST 2023 in /home/michal/install/eddp/airss/examples/1.10
REM pp3 from code version ## 0.9.3 July 2022 commit b0220bf5cbf550a3b7
REM
REM
REM
REM Total runtime: s
REM
REM
REM ./ABC.cell (e32783a7be585090ebb5c77828425f51)
REM ## AIRSS Version 0.9.3 July 2022 commit b0220bf5cbf550a3b7
REM compiler GCC version 11.4.0
REM options -cpp -imultiarch x86_64-linux-gnu -mtune=generic -march=x86-64 -g -Og -fpre-include=/usr/include/finclude/math-vector-fortran.h
REM cmdline: airss.pl -pp3 -max 1000 -seed ABC 
REM seed -210331093 976298377 1939909178 1079517900 1725405591 -822415272 -400713303 1285624011
REM
REM ABC.pp (b4a81987505b5d62180816d9c6bc34eb)
REM 
CELL 1.54180    2.19114    3.35704    2.43628  111.27600   90.00000  109.04734
LATT -1
SFAC A  C  
A      1  0.8824909332381  0.4637556999895  0.2959736666583 1.0
C      2  1.5494553777267  0.7976845768261  0.9629381068930 1.0
C      2  0.2155264890352  0.1298268231843  0.6290092264486 1.0
END
