TITL ABC-78-8314-63 0.0000001129 29.4270993458 -33.4218643538 0 0  4 (Fm-3m) n - 1
REM
REM Run started: at Fri Oct 6 14:18:03 BST 2023 in /home/michal/install/eddp/airss/examples/1.10
REM pp3 from code version ## 0.9.3 July 2022 commit b0220bf5cbf550a3b7
REM
REM
REM
REM Total runtime: s
REM
REM
REM ./ABC.cell (e32783a7be585090ebb5c77828425f51)
REM ## AIRSS Version 0.9.3 July 2022 commit b0220bf5cbf550a3b7
REM compiler GCC version 11.4.0
REM options -cpp -imultiarch x86_64-linux-gnu -mtune=generic -march=x86-64 -g -Og -fpre-include=/usr/include/finclude/math-vector-fortran.h
REM cmdline: airss.pl -pp3 -max 1000 -seed ABC 
REM seed -1250195988 1942504048 763972988 1449611277 258631996 -1403049526 920208183 -1324169505
REM
REM ABC.pp (b4a81987505b5d62180816d9c6bc34eb)
REM 
CELL 1.54180    3.08733    3.78119    3.08733  114.09484   90.00000  114.09484
LATT -1
SFAC A  
A      1  0.4992363748866  0.7202830495948  0.6124895249111 1.0
A      1  0.9992363746490  0.7202830494843  0.1124895246844 1.0
A      1  0.2492363751049  0.2202830503455  0.8624895251629 1.0
A      1  0.7492363753595  0.2202830505754  0.3624895252417 1.0
END
