TITL ABC-78-8314-502 0.0000000296 17.9411114307 -30.1670761109 0 0  4 (P4/mmm) n - 1
REM
REM Run started: at Fri Oct 6 14:26:28 BST 2023 in /home/michal/install/eddp/airss/examples/1.10
REM pp3 from code version ## 0.9.3 July 2022 commit b0220bf5cbf550a3b7
REM
REM
REM
REM Total runtime: s
REM
REM
REM ./ABC.cell (e32783a7be585090ebb5c77828425f51)
REM ## AIRSS Version 0.9.3 July 2022 commit b0220bf5cbf550a3b7
REM compiler GCC version 11.4.0
REM options -cpp -imultiarch x86_64-linux-gnu -mtune=generic -march=x86-64 -g -Og -fpre-include=/usr/include/finclude/math-vector-fortran.h
REM cmdline: airss.pl -pp3 -max 1000 -seed ABC 
REM seed 982055912 -848657836 -1654227048 -1668960649 -808155253 -989398275 -700819525 1263509979
REM
REM ABC.pp (b4a81987505b5d62180816d9c6bc34eb)
REM 
CELL 1.54180    2.18543    2.18545    3.75639   90.00000   90.00000   90.00000
LATT -1
SFAC A  B  
A      1  0.4371369517806  0.1947933496870  0.7250329297826 1.0
B      2  0.9371369499860  0.6947933498603  0.4878375989243 1.0
B      2  0.9371369501978  0.6947933500083  0.9622283021935 1.0
B      2  0.4371369480356  0.1947933504444  0.2250329690995 1.0
END
