TITL ABC-78-8314-534 0.0000001212 16.0981841472 -29.0039854837 0 0  3 (I4/mmm) n - 1
REM
REM Run started: at Fri Oct 6 14:27:06 BST 2023 in /home/michal/install/eddp/airss/examples/1.10
REM pp3 from code version ## 0.9.3 July 2022 commit b0220bf5cbf550a3b7
REM
REM
REM
REM Total runtime: s
REM
REM
REM ./ABC.cell (e32783a7be585090ebb5c77828425f51)
REM ## AIRSS Version 0.9.3 July 2022 commit b0220bf5cbf550a3b7
REM compiler GCC version 11.4.0
REM options -cpp -imultiarch x86_64-linux-gnu -mtune=generic -march=x86-64 -g -Og -fpre-include=/usr/include/finclude/math-vector-fortran.h
REM cmdline: airss.pl -pp3 -max 1000 -seed ABC 
REM seed 355412366 1609517138 1399376181 738933956 868712011 1949193376 935547804 1517172254
REM
REM ABC.pp (b4a81987505b5d62180816d9c6bc34eb)
REM 
CELL 1.54180    2.10252    2.10252    3.93343  105.50142  105.50142   90.00001
LATT -1
SFAC A  B  
A      1  0.2724048952237  0.1359350022702  0.0619727652665 1.0
A      1  0.5557053024068  0.4192354026967  0.6285735698396 1.0
B      2  0.9140551023695  0.7775851950330  0.3452731648939 1.0
END
