TITL ABC-23792-6234-26 -0.0000000012 7.0035071885 -12.9497391617 0 0  2 (Pm-3m) n - 1
REM
REM Run started: at Mon Nov 6 13:33:02 GMT 2023 in /home/michal/install/eddp/airss/examples/1.10
REM pp3 from code version ## 0.9.3 July 2022 commit b0220bf5cbf550a3b7
REM
REM
REM
REM Total runtime: s
REM
REM
REM ./ABC.cell (e32783a7be585090ebb5c77828425f51)
REM ## AIRSS Version 0.9.3 July 2022 commit b0220bf5cbf550a3b7
REM compiler GCC version 11.4.0
REM options -cpp -imultiarch x86_64-linux-gnu -mtune=generic -march=x86-64 -g -Og -fpre-include=/usr/include/finclude/math-vector-fortran.h
REM cmdline: airss.pl -pp3 -max 1000 -seed ABC 
REM seed 489815974 2000643543 -1716385924 388154318 584482365 1961163527 1540753052 -686525129
REM
REM ABC.pp (b4a81987505b5d62180816d9c6bc34eb)
REM 
CELL 1.54180    1.91325    1.91325    1.91325   89.99997   89.99997   89.99997
LATT -1
SFAC B  C  
B      1  0.8282330465776  0.3105450462277  0.6339678394410 1.0
C      2  0.3282330534224  0.8105450537723  0.1339678605590 1.0
END
