TITL ABC-78-8314-239 -0.0000000775 28.1327289839 -26.4803556298 0 0  6 (Cm) n - 1
REM
REM Run started: at Fri Oct 6 14:21:21 BST 2023 in /home/michal/install/eddp/airss/examples/1.10
REM pp3 from code version ## 0.9.3 July 2022 commit b0220bf5cbf550a3b7
REM
REM
REM
REM Total runtime: s
REM
REM
REM ./ABC.cell (e32783a7be585090ebb5c77828425f51)
REM ## AIRSS Version 0.9.3 July 2022 commit b0220bf5cbf550a3b7
REM compiler GCC version 11.4.0
REM options -cpp -imultiarch x86_64-linux-gnu -mtune=generic -march=x86-64 -g -Og -fpre-include=/usr/include/finclude/math-vector-fortran.h
REM cmdline: airss.pl -pp3 -max 1000 -seed ABC 
REM seed 79275012 -1822378566 -1608395617 -2088680767 -1425482649 804484157 1912230321 1919992125
REM
REM ABC.pp (b4a81987505b5d62180816d9c6bc34eb)
REM 
CELL 1.54180    1.95016    3.51750    4.53081   72.13581  102.42766  106.09359
LATT -1
SFAC B  C  
B      1  0.1344899267887  0.1165802269414  0.7958742783373 1.0
B      1  0.8973896238977  0.5437801581111  0.8944770154481 1.0
B      1  0.6648741992140  0.8025498054457  0.1706716165485 1.0
B      1  0.9791723018450  0.2899632680325  0.3118472452917 1.0
B      1  0.3659909536303  0.8360206931062  0.5394329171799 1.0
C      2  0.6750880946244  0.4447913483632  0.5488556271946 1.0
END
