TITL ABC-78-8314-321 -0.0000003055 44.9174665742 -71.1595017716 0 0  8 (P1) n - 1
REM
REM Run started: at Fri Oct 6 14:22:57 BST 2023 in /home/michal/install/eddp/airss/examples/1.10
REM pp3 from code version ## 0.9.3 July 2022 commit b0220bf5cbf550a3b7
REM
REM
REM
REM Total runtime: s
REM
REM
REM ./ABC.cell (e32783a7be585090ebb5c77828425f51)
REM ## AIRSS Version 0.9.3 July 2022 commit b0220bf5cbf550a3b7
REM compiler GCC version 11.4.0
REM options -cpp -imultiarch x86_64-linux-gnu -mtune=generic -march=x86-64 -g -Og -fpre-include=/usr/include/finclude/math-vector-fortran.h
REM cmdline: airss.pl -pp3 -max 1000 -seed ABC 
REM seed 741055876 1907242072 -2089678893 1894973820 1211066045 1947057611 1929182806 -1799070956
REM
REM ABC.pp (b4a81987505b5d62180816d9c6bc34eb)
REM 
CELL 1.54180    3.59908    3.44072    4.08310   85.50077   68.26325   73.11005
LATT -1
SFAC A  B  C  
A      1  0.0148933123944  0.3900556031584  0.8214949248885 1.0
A      1  0.4342588009427  0.2568779120879  0.2244257832073 1.0
A      1  0.6334998857706  0.9646471716491  0.7195111876580 1.0
A      1  0.8036807155551  0.4419459928267  0.4079022631517 1.0
A      1  0.0746588581788  0.8715826968641  0.1234981294176 1.0
B      2  0.5914082756376  0.7422594931518  0.1335537882369 1.0
B      2  0.4585427933209  0.4975980085450  0.8271650200187 1.0
C      3  0.2381647582000  0.8294998217169  0.5519890034212 1.0
END
