TITL ABC-78-8314-373 -0.0000079878 29.7709094549 -47.8666480012 0 0  6 (R3m) n - 1
REM
REM Run started: at Fri Oct 6 14:23:58 BST 2023 in /home/michal/install/eddp/airss/examples/1.10
REM pp3 from code version ## 0.9.3 July 2022 commit b0220bf5cbf550a3b7
REM
REM
REM
REM Total runtime: s
REM
REM
REM ./ABC.cell (e32783a7be585090ebb5c77828425f51)
REM ## AIRSS Version 0.9.3 July 2022 commit b0220bf5cbf550a3b7
REM compiler GCC version 11.4.0
REM options -cpp -imultiarch x86_64-linux-gnu -mtune=generic -march=x86-64 -g -Og -fpre-include=/usr/include/finclude/math-vector-fortran.h
REM cmdline: airss.pl -pp3 -max 1000 -seed ABC 
REM seed -1449537111 -775923614 -1476307453 -1134934755 1039544952 -62702718 1416850705 1228678292
REM
REM ABC.pp (b4a81987505b5d62180816d9c6bc34eb)
REM 
CELL 1.54180    2.88570    2.88571    4.45166   71.08828   71.08828   60.00036
LATT -1
SFAC A  B  C  
A      1  0.6402813786496  0.8320292718676  0.0872153458862 1.0
A      1  0.0796876894856  0.2714350178082  0.7689940646811 1.0
B      2  0.7823002363754  0.9740453485829  0.6611556305485 1.0
B      2  0.3544746707082  0.5462210267735  0.9446346886214 1.0
C      3  0.9087652820034  0.1005168601507  0.2817640596923 1.0
C      3  0.4869048427778  0.6786533748172  0.5473415105705 1.0
END
