TITL ABC-78-8314-8 -0.0000002622 29.8265404153 -17.3739901125 0 0  5 (Cm) n - 1
REM
REM Run started: at Fri Oct 6 14:17:06 BST 2023 in /home/michal/install/eddp/airss/examples/1.10
REM pp3 from code version ## 0.9.3 July 2022 commit b0220bf5cbf550a3b7
REM
REM
REM
REM Total runtime: s
REM
REM
REM ./ABC.cell (e32783a7be585090ebb5c77828425f51)
REM ## AIRSS Version 0.9.3 July 2022 commit b0220bf5cbf550a3b7
REM compiler GCC version 11.4.0
REM options -cpp -imultiarch x86_64-linux-gnu -mtune=generic -march=x86-64 -g -Og -fpre-include=/usr/include/finclude/math-vector-fortran.h
REM cmdline: airss.pl -pp3 -max 1000 -seed ABC 
REM seed 2137681419 744178916 522017627 172406909 1307102662 -2015221255 1804617063 -1897522033
REM
REM ABC.pp (b4a81987505b5d62180816d9c6bc34eb)
REM 
CELL 1.54180    1.93435    3.30797    4.78284   84.46892  101.66669   90.00000
LATT -1
SFAC B  
B      1  0.4102063316973  0.6457949468764  0.9494832414772 1.0
B      1  0.9083070291541  0.1530775640649  0.9456846396552 1.0
B      1  0.7342872346428  0.5302856828572  0.5976450492892 1.0
B      1  0.5747218854949  0.9447268642853  0.2785143489423 1.0
B      1  0.2435285190110  0.0302598419163  0.6161276206362 1.0
END
