TITL ABC-24937-8325-46 -0.0000002566 32.7782739243 -65.7393648080 0 0  7 (Cm) n - 1
REM
REM Run started: at Mon Nov 6 13:19:53 GMT 2023 in /home/michal/install/eddp/airss/examples/1.10
REM pp3 from code version ## 0.9.3 July 2022 commit b0220bf5cbf550a3b7
REM
REM
REM
REM Total runtime: s
REM
REM
REM ./ABC.cell (e32783a7be585090ebb5c77828425f51)
REM ## AIRSS Version 0.9.3 July 2022 commit b0220bf5cbf550a3b7
REM compiler GCC version 11.4.0
REM options -cpp -imultiarch x86_64-linux-gnu -mtune=generic -march=x86-64 -g -Og -fpre-include=/usr/include/finclude/math-vector-fortran.h
REM cmdline: airss.pl -pp3 -max 1000 -seed ABC 
REM seed 1469222467 -1575125811 74382834 813384338 -650198638 -681812 -1140883280 448997137
REM
REM ABC.pp (b4a81987505b5d62180816d9c6bc34eb)
REM 
CELL 1.54180    2.40200    3.31771    4.74780  110.12941   90.00000   68.77714
LATT -1
SFAC A  B  C  
A      1  0.4089323599422  0.5534216942220  0.3344787654312 1.0
A      1  0.6950765969111  0.9811332208630  0.7124433255611 1.0
A      1  0.9122145907964  0.5468572329184  0.9671839562704 1.0
B      2  0.3967155841892  0.5778552450593  0.7148646871246 1.0
B      2  0.6989798421318  0.9733267298133  0.3275069217833 1.0
C      3  0.0507866858305  0.2697130432149  0.5276037819440 1.0
C      3  0.1635073401987  0.0442717339091  0.0916321618853 1.0
END
