TITL ABC-78-8314-997 0.0000000778 40.3484125876 -40.0819804901 0 0  8 (Cm) n - 1
REM
REM Run started: at Fri Oct 6 14:36:11 BST 2023 in /home/michal/install/eddp/airss/examples/1.10
REM pp3 from code version ## 0.9.3 July 2022 commit b0220bf5cbf550a3b7
REM
REM
REM
REM Total runtime: s
REM
REM
REM ./ABC.cell (e32783a7be585090ebb5c77828425f51)
REM ## AIRSS Version 0.9.3 July 2022 commit b0220bf5cbf550a3b7
REM compiler GCC version 11.4.0
REM options -cpp -imultiarch x86_64-linux-gnu -mtune=generic -march=x86-64 -g -Og -fpre-include=/usr/include/finclude/math-vector-fortran.h
REM cmdline: airss.pl -pp3 -max 1000 -seed ABC 
REM seed 425458299 -1713117366 1310129167 -219451556 -990659464 -989167393 -1489157410 -426864001
REM
REM ABC.pp (b4a81987505b5d62180816d9c6bc34eb)
REM 
CELL 1.54180    1.98950    3.48811    6.28579   75.45394   90.00000  106.56979
LATT -1
SFAC B  C  
B      1  1.2805049973643  0.3195097378175  0.5836206895847 1.0
C      2  1.0908064923749  0.9401127224920  0.8743583775726 1.0
C      2  1.3328267786504  0.4241532949360  0.0208073284609 1.0
C      2  0.2365306258578  0.2315609897196  0.3317218237676 1.0
C      2  1.5881558154692  0.9348113663192  0.6032169457659 1.0
C      2  1.5695855961713  0.8976709300170  0.1535854092997 1.0
C      2  0.9438057281385  0.6461111916353  0.4241618795996 1.0
C      2  0.8450514659735  0.4486026670634  0.7555985459489 1.0
END
