TITL ABC-78-8314-582 -0.0000006098 32.4026525898 -55.2298671126 0 0  7 (Cm) n - 1
REM
REM Run started: at Fri Oct 6 14:28:02 BST 2023 in /home/michal/install/eddp/airss/examples/1.10
REM pp3 from code version ## 0.9.3 July 2022 commit b0220bf5cbf550a3b7
REM
REM
REM
REM Total runtime: s
REM
REM
REM ./ABC.cell (e32783a7be585090ebb5c77828425f51)
REM ## AIRSS Version 0.9.3 July 2022 commit b0220bf5cbf550a3b7
REM compiler GCC version 11.4.0
REM options -cpp -imultiarch x86_64-linux-gnu -mtune=generic -march=x86-64 -g -Og -fpre-include=/usr/include/finclude/math-vector-fortran.h
REM cmdline: airss.pl -pp3 -max 1000 -seed ABC 
REM seed -750160270 -633166541 -1128796843 1762370184 393930998 266310168 682514186 1256357935
REM
REM ABC.pp (b4a81987505b5d62180816d9c6bc34eb)
REM 
CELL 1.54180    3.53398    2.76762    3.60579   90.00000   92.87653   66.94762
LATT -1
SFAC A  B  C  
A      1  0.3730436580804  0.8651509027475  0.4126860948262 1.0
A      1  0.9750261564490  0.5641595726502  0.6198101076975 1.0
B      2  0.0582008322199  0.0225722365740  0.9138732792376 1.0
B      2  0.5313792565358  0.2859831388879  0.6895792621309 1.0
C      3  0.7668000422534  0.1682726778387  0.2822939392375 1.0
C      3  0.5499633436379  0.7766910936904  0.9335951273755 1.0
C      3  0.1599388108236  0.4717032776114  0.1177732894948 1.0
END
