TITL ABC-24937-8325-51 0.0000003218 37.7776619688 -33.7200941439 0 0  8 (Cmmm) n - 1
REM
REM Run started: at Mon Nov 6 13:19:58 GMT 2023 in /home/michal/install/eddp/airss/examples/1.10
REM pp3 from code version ## 0.9.3 July 2022 commit b0220bf5cbf550a3b7
REM
REM
REM
REM Total runtime: s
REM
REM
REM ./ABC.cell (e32783a7be585090ebb5c77828425f51)
REM ## AIRSS Version 0.9.3 July 2022 commit b0220bf5cbf550a3b7
REM compiler GCC version 11.4.0
REM options -cpp -imultiarch x86_64-linux-gnu -mtune=generic -march=x86-64 -g -Og -fpre-include=/usr/include/finclude/math-vector-fortran.h
REM cmdline: airss.pl -pp3 -max 1000 -seed ABC 
REM seed -1020703794 -264240422 1052667162 -547010245 1552863981 -2127128318 2056360337 1950666869
REM
REM ABC.pp (b4a81987505b5d62180816d9c6bc34eb)
REM 
CELL 1.54180    2.60433    3.81190    4.25600  116.60431   90.00000   90.00001
LATT -1
SFAC B  C  
B      1  0.3656937218052  0.3816341696625  0.4508080191100 1.0
B      1  0.8656937565841  0.7700527363449  0.7133863223068 1.0
B      1  0.3656937022832  0.8862701808347  0.4600800312824 1.0
B      1  0.8656936680332  0.4978516130071  0.1975017273252 1.0
B      1  0.3656937116754  0.6339521752255  0.9554440253261 1.0
B      1  0.8656937031307  0.2557939251970  0.7133863219180 1.0
B      1  0.8656937244426  0.0121104249564  0.1975017279995 1.0
C      2  0.3656937120457  0.1339521747720  0.9554440247320 1.0
END
