TITL ABC-78-8314-435 0.0000013495 26.7706058737 -46.9216855733 0 0  5 (C2/m) n - 1
REM
REM Run started: at Fri Oct 6 14:25:09 BST 2023 in /home/michal/install/eddp/airss/examples/1.10
REM pp3 from code version ## 0.9.3 July 2022 commit b0220bf5cbf550a3b7
REM
REM
REM
REM Total runtime: s
REM
REM
REM ./ABC.cell (e32783a7be585090ebb5c77828425f51)
REM ## AIRSS Version 0.9.3 July 2022 commit b0220bf5cbf550a3b7
REM compiler GCC version 11.4.0
REM options -cpp -imultiarch x86_64-linux-gnu -mtune=generic -march=x86-64 -g -Og -fpre-include=/usr/include/finclude/math-vector-fortran.h
REM cmdline: airss.pl -pp3 -max 1000 -seed ABC 
REM seed 1813488666 -1539554540 1758677573 -1627320551 1827516713 -17983942 9974970 740031809
REM
REM ABC.pp (b4a81987505b5d62180816d9c6bc34eb)
REM 
CELL 1.54180    2.16105    4.24084    3.34499  110.85572  108.84616   75.23879
LATT -1
SFAC A  B  
A      1  0.9620723966317  0.2515981416534  0.7855787146734 1.0
A      1  0.1449962371497  0.5669206410195  0.4667488952781 1.0
A      1  0.7791485629313  0.9362756403757  0.1044085461617 1.0
B      2  0.4152671032466  0.5842480050264  0.0246179916860 1.0
B      2  0.5088777000407  0.9189482719250  0.5465394522008 1.0
END
