TITL ABC-78-8314-635 0.0000000726 32.7252941349 -42.3393979110 0 0  5 (I-42m) n - 1
REM
REM Run started: at Fri Oct 6 14:29:04 BST 2023 in /home/michal/install/eddp/airss/examples/1.10
REM pp3 from code version ## 0.9.3 July 2022 commit b0220bf5cbf550a3b7
REM
REM
REM
REM Total runtime: s
REM
REM
REM ./ABC.cell (e32783a7be585090ebb5c77828425f51)
REM ## AIRSS Version 0.9.3 July 2022 commit b0220bf5cbf550a3b7
REM compiler GCC version 11.4.0
REM options -cpp -imultiarch x86_64-linux-gnu -mtune=generic -march=x86-64 -g -Og -fpre-include=/usr/include/finclude/math-vector-fortran.h
REM cmdline: airss.pl -pp3 -max 1000 -seed ABC 
REM seed -190976097 -1659941757 1881545116 -1859744049 161573761 1886648112 -939868266 -1360599397
REM
REM ABC.pp (b4a81987505b5d62180816d9c6bc34eb)
REM 
CELL 1.54180    3.49409    3.49409    3.49409   68.54642   74.42734  111.45637
LATT -1
SFAC A  B  
A      1  0.3616898230866  0.3753227692669  0.3702566995975 1.0
A      1  0.7762427712026  0.3753615507713  0.7847708662601 1.0
A      1  0.4510730991602  0.7898757177207  0.6954263763827 1.0
A      1  0.0365201459394  0.9608086023958  0.1099405383826 1.0
B      2  0.9063814606112  0.3753421598453  0.2400986193770 1.0
END
