TITL ABC-78-8314-885 0.0000001367 33.2805215472 -49.0537921606 0 0  6 (Amm2) n - 1
REM
REM Run started: at Fri Oct 6 14:34:00 BST 2023 in /home/michal/install/eddp/airss/examples/1.10
REM pp3 from code version ## 0.9.3 July 2022 commit b0220bf5cbf550a3b7
REM
REM
REM
REM Total runtime: s
REM
REM
REM ./ABC.cell (e32783a7be585090ebb5c77828425f51)
REM ## AIRSS Version 0.9.3 July 2022 commit b0220bf5cbf550a3b7
REM compiler GCC version 11.4.0
REM options -cpp -imultiarch x86_64-linux-gnu -mtune=generic -march=x86-64 -g -Og -fpre-include=/usr/include/finclude/math-vector-fortran.h
REM cmdline: airss.pl -pp3 -max 1000 -seed ABC 
REM seed -1522461153 84638603 1748641081 -718426201 -1098165946 -883398133 864789605 -897935603
REM
REM ABC.pp (b4a81987505b5d62180816d9c6bc34eb)
REM 
CELL 1.54180    2.18715    3.90091    3.90100   90.68269   90.00000   90.00000
LATT -1
SFAC A  B  C  
A      1  0.0250087594143  0.5761169585826  0.8944890911499 1.0
A      1  0.5250089668731  0.0662941352467  0.7595885957367 1.0
A      1  0.0250087574086  0.2012008402892  0.2694086961122 1.0
B      2  0.0250088882126  0.8099926130484  0.5032829674778 1.0
C      3  0.5250087629450  0.4971465904814  0.5195207601689 1.0
C      3  0.5250087651465  0.8262231623518  0.1904385893546 1.0
END
