TITL ABC-78-8314-437 -0.0000021897 30.4261779975 -45.1357866678 0 0  7 (Pm) n - 1
REM
REM Run started: at Fri Oct 6 14:25:11 BST 2023 in /home/michal/install/eddp/airss/examples/1.10
REM pp3 from code version ## 0.9.3 July 2022 commit b0220bf5cbf550a3b7
REM
REM
REM
REM Total runtime: s
REM
REM
REM ./ABC.cell (e32783a7be585090ebb5c77828425f51)
REM ## AIRSS Version 0.9.3 July 2022 commit b0220bf5cbf550a3b7
REM compiler GCC version 11.4.0
REM options -cpp -imultiarch x86_64-linux-gnu -mtune=generic -march=x86-64 -g -Og -fpre-include=/usr/include/finclude/math-vector-fortran.h
REM cmdline: airss.pl -pp3 -max 1000 -seed ABC 
REM seed -1495121853 662553822 -18756461 -209897437 -1378249074 260797052 1359036394 -1491332579
REM
REM ABC.pp (b4a81987505b5d62180816d9c6bc34eb)
REM 
CELL 1.54180    2.10502    3.11347    4.66919   96.13587   90.00000   90.00000
LATT -1
SFAC A  B  C  
A      1  0.5038432973436  0.9710077086635  0.6159514137446 1.0
B      2  0.5038433559995  0.4431635243058  0.4477829746191 1.0
B      2  0.5038432578075  0.8998636009881  0.2364447042832 1.0
B      2  0.5038433291161  0.4195802937300  0.9528961812208 1.0
B      2  0.0038432942466  0.9251329024787  0.9107323580078 1.0
C      3  0.0038433321019  0.3001225977619  0.1962426592241 1.0
C      3  0.0038433333848  0.4790590720720  0.7049331089004 1.0
END
