TITL ABC-78-8314-879 0.0000008156 25.2871399115 -35.6596842650 0 0  4 (P4/mmm) n - 1
REM
REM Run started: at Fri Oct 6 14:33:54 BST 2023 in /home/michal/install/eddp/airss/examples/1.10
REM pp3 from code version ## 0.9.3 July 2022 commit b0220bf5cbf550a3b7
REM
REM
REM
REM Total runtime: s
REM
REM
REM ./ABC.cell (e32783a7be585090ebb5c77828425f51)
REM ## AIRSS Version 0.9.3 July 2022 commit b0220bf5cbf550a3b7
REM compiler GCC version 11.4.0
REM options -cpp -imultiarch x86_64-linux-gnu -mtune=generic -march=x86-64 -g -Og -fpre-include=/usr/include/finclude/math-vector-fortran.h
REM cmdline: airss.pl -pp3 -max 1000 -seed ABC 
REM seed 2089767046 1121649953 -1242660411 -1439354845 1003801047 1941923423 816364057 1903018382
REM
REM ABC.pp (b4a81987505b5d62180816d9c6bc34eb)
REM 
CELL 1.54180    2.19364    2.19364    5.25494   90.00000   90.00000   90.00000
LATT -1
SFAC A  C  
A      1  0.2928493078640  0.6440739423112  0.6683600789420 1.0
A      1  0.7928492979665  0.1440739478972  0.3792694869442 1.0
A      1  0.2928493017120  0.6440738814495  0.0901789482629 1.0
C      2  0.7928492924576  0.1440739283422  0.8792694858510 1.0
END
