TITL ABC-78-8314-183 0.0000006861 13.2299791156 -15.5067545861 0 0  3 (Amm2) n - 1
REM
REM Run started: at Fri Oct 6 14:20:17 BST 2023 in /home/michal/install/eddp/airss/examples/1.10
REM pp3 from code version ## 0.9.3 July 2022 commit b0220bf5cbf550a3b7
REM
REM
REM
REM Total runtime: s
REM
REM
REM ./ABC.cell (e32783a7be585090ebb5c77828425f51)
REM ## AIRSS Version 0.9.3 July 2022 commit b0220bf5cbf550a3b7
REM compiler GCC version 11.4.0
REM options -cpp -imultiarch x86_64-linux-gnu -mtune=generic -march=x86-64 -g -Og -fpre-include=/usr/include/finclude/math-vector-fortran.h
REM cmdline: airss.pl -pp3 -max 1000 -seed ABC 
REM seed 171342977 -925680410 -1666177504 -1915530343 -1593640456 1022950856 -1430777728 -1556073114
REM
REM ABC.pp (b4a81987505b5d62180816d9c6bc34eb)
REM 
CELL 1.54180    2.00463    3.09855    2.29258  111.71223   90.00000   90.00000
LATT -1
SFAC B  C  
B      1  0.8938511646483  0.7888040357815  0.9696863350495 1.0
C      2  0.8938511682528  0.1878522700676  0.6692104166669 1.0
C      2  0.3938511670989  0.5986403941509  1.3746044482836 1.0
END
