TITL ABC-78-8314-525 0.0000001673 29.6406052516 -39.5864154433 0 0  6 (Cm) n - 1
REM
REM Run started: at Fri Oct 6 14:26:56 BST 2023 in /home/michal/install/eddp/airss/examples/1.10
REM pp3 from code version ## 0.9.3 July 2022 commit b0220bf5cbf550a3b7
REM
REM
REM
REM Total runtime: s
REM
REM
REM ./ABC.cell (e32783a7be585090ebb5c77828425f51)
REM ## AIRSS Version 0.9.3 July 2022 commit b0220bf5cbf550a3b7
REM compiler GCC version 11.4.0
REM options -cpp -imultiarch x86_64-linux-gnu -mtune=generic -march=x86-64 -g -Og -fpre-include=/usr/include/finclude/math-vector-fortran.h
REM cmdline: airss.pl -pp3 -max 1000 -seed ABC 
REM seed 1107251150 2128797623 559323377 -92728918 1509274327 -1854532294 2037502516 1135520430
REM
REM ABC.pp (b4a81987505b5d62180816d9c6bc34eb)
REM 
CELL 1.54180    2.09761    3.51597    4.48665  108.19828   76.48138  107.35538
LATT -1
SFAC A  B  C  
A      1  0.2583524187131  0.9532809783876  0.4478293576278 1.0
B      2  0.8104501897351  0.3152775773353  0.7056304145374 1.0
C      3  0.0188303612096  0.3716228923852  0.3452153865988 1.0
C      3  0.7931411037906  0.6563896088853  0.0813606179779 1.0
C      3  0.1189169962306  0.1395618055861  0.9129810298025 1.0
C      3  0.4922479303210  0.6743362374205  0.7010935934557 1.0
END
