TITL ABC-78-8314-589 -0.0000000038 34.0276288449 -64.1807183802 0 0  8 (Pm-3m) n - 1
REM
REM Run started: at Fri Oct 6 14:28:09 BST 2023 in /home/michal/install/eddp/airss/examples/1.10
REM pp3 from code version ## 0.9.3 July 2022 commit b0220bf5cbf550a3b7
REM
REM
REM
REM Total runtime: s
REM
REM
REM ./ABC.cell (e32783a7be585090ebb5c77828425f51)
REM ## AIRSS Version 0.9.3 July 2022 commit b0220bf5cbf550a3b7
REM compiler GCC version 11.4.0
REM options -cpp -imultiarch x86_64-linux-gnu -mtune=generic -march=x86-64 -g -Og -fpre-include=/usr/include/finclude/math-vector-fortran.h
REM cmdline: airss.pl -pp3 -max 1000 -seed ABC 
REM seed -849954811 1906261798 -318441801 -1989452258 785741188 -1187180090 -2135323123 461885047
REM
REM ABC.pp (b4a81987505b5d62180816d9c6bc34eb)
REM 
CELL 1.54180    3.63733    3.63733    2.57198   90.00000   90.00000   89.99997
LATT -1
SFAC A  B  
A      1  0.5968180273517  0.2946473129205  0.0446696618931 1.0
A      1  0.0968180274931  0.7946473127746  0.0446696619311 1.0
B      2  0.5968180253692  0.7946473125129  0.0446696629636 1.0
B      2  0.8468180307522  0.5446473185090  0.5446696649055 1.0
B      2  0.8468180153146  0.0446473234711  0.5446696635153 1.0
B      2  0.3468180337209  0.5446473029171  0.5446696604720 1.0
B      2  0.3468180145479  0.0446473043803  0.5446696614795 1.0
B      2  0.0968180254504  0.2946473125146  0.0446696628398 1.0
END
