TITL ABC-24937-8325-81 -0.0000081326 9.7947323512 -18.8083030375 0 0  2 (R-3m) n - 1
REM
REM Run started: at Mon Nov 6 13:20:29 GMT 2023 in /home/michal/install/eddp/airss/examples/1.10
REM pp3 from code version ## 0.9.3 July 2022 commit b0220bf5cbf550a3b7
REM
REM
REM
REM Total runtime: s
REM
REM
REM ./ABC.cell (e32783a7be585090ebb5c77828425f51)
REM ## AIRSS Version 0.9.3 July 2022 commit b0220bf5cbf550a3b7
REM compiler GCC version 11.4.0
REM options -cpp -imultiarch x86_64-linux-gnu -mtune=generic -march=x86-64 -g -Og -fpre-include=/usr/include/finclude/math-vector-fortran.h
REM cmdline: airss.pl -pp3 -max 1000 -seed ABC 
REM seed -1891729771 -976188781 138547265 1206355650 815962897 -1297300176 1954662493 -1830266858
REM
REM ABC.pp (b4a81987505b5d62180816d9c6bc34eb)
REM 
CELL 1.54180    2.17966    2.17967    2.69272  113.87389   66.12593  119.99966
LATT -1
SFAC A  B  
A      1  0.2991017501568  0.0842726501357  0.7643701999915 1.0
B      2  0.7991017498432  0.5842726498643  0.2643702000085 1.0
END
