TITL ABC-78-8314-91 -0.0000000002 42.2460006461 -70.5975750257 0 0  8 (Cm) n - 1
REM
REM Run started: at Fri Oct 6 14:18:34 BST 2023 in /home/michal/install/eddp/airss/examples/1.10
REM pp3 from code version ## 0.9.3 July 2022 commit b0220bf5cbf550a3b7
REM
REM
REM
REM Total runtime: s
REM
REM
REM ./ABC.cell (e32783a7be585090ebb5c77828425f51)
REM ## AIRSS Version 0.9.3 July 2022 commit b0220bf5cbf550a3b7
REM compiler GCC version 11.4.0
REM options -cpp -imultiarch x86_64-linux-gnu -mtune=generic -march=x86-64 -g -Og -fpre-include=/usr/include/finclude/math-vector-fortran.h
REM cmdline: airss.pl -pp3 -max 1000 -seed ABC 
REM seed 427294663 1567770355 -1759839174 -1480098018 -1060452260 618531074 334589963 -581067627
REM
REM ABC.pp (b4a81987505b5d62180816d9c6bc34eb)
REM 
CELL 1.54180    2.13906    3.45650    6.32396  101.34711   80.26316   71.97538
LATT -1
SFAC A  B  C  
A      1  0.0590626945387  0.2465522395767  0.8556419338569 1.0
A      1  0.3251105903306  0.2291182540227  0.3409801278085 1.0
A      1  0.1920669227985  0.7037262031210  0.1324595137724 1.0
A      1  0.9361304661334  0.6906985805848  0.6573600496691 1.0
B      2  0.9040790117800  0.2778375184647  0.1343240204639 1.0
B      2  0.7088490135774  0.8590119148995  0.9436096204269 1.0
C      3  0.7156490301722  0.2010802915161  0.5879412106489 1.0
C      3  0.5526476706692  0.7126462978145  0.4023779233533 1.0
END
