TITL ABC-78-8314-100 -0.0000013525 41.1616439713 -49.4862956611 0 0  6 (C2/m) n - 1
REM
REM Run started: at Fri Oct 6 14:18:43 BST 2023 in /home/michal/install/eddp/airss/examples/1.10
REM pp3 from code version ## 0.9.3 July 2022 commit b0220bf5cbf550a3b7
REM
REM
REM
REM Total runtime: s
REM
REM
REM ./ABC.cell (e32783a7be585090ebb5c77828425f51)
REM ## AIRSS Version 0.9.3 July 2022 commit b0220bf5cbf550a3b7
REM compiler GCC version 11.4.0
REM options -cpp -imultiarch x86_64-linux-gnu -mtune=generic -march=x86-64 -g -Og -fpre-include=/usr/include/finclude/math-vector-fortran.h
REM cmdline: airss.pl -pp3 -max 1000 -seed ABC 
REM seed 2105446057 -1254561698 1767773963 1302562181 -1930419723 1796555570 1712124329 -1273884039
REM
REM ABC.pp (b4a81987505b5d62180816d9c6bc34eb)
REM 
CELL 1.54180    3.80875    3.21859    4.31092  111.91969   99.14959  114.99418
LATT -1
SFAC A  C  
A      1  0.2799538004415  0.4226165165913  0.4956965969713 1.0
A      1  0.3953380967033  0.1564649184755  0.8480091120811 1.0
A      1  0.8444231773931  0.9376651653154  0.9613245762736 1.0
A      1  0.3376459515948  0.7895407169527  0.1718528462665 1.0
A      1  0.8308687197745  0.6414162648728  0.3823811201116 1.0
C      2  0.8376459540928  0.2895407177923  0.6718528482960 1.0
END
