TITL ABC-78-8314-300 0.0000002859 40.8986466792 -57.0194782107 0 0  8 (Cm) n - 1
REM
REM Run started: at Fri Oct 6 14:22:34 BST 2023 in /home/michal/install/eddp/airss/examples/1.10
REM pp3 from code version ## 0.9.3 July 2022 commit b0220bf5cbf550a3b7
REM
REM
REM
REM Total runtime: s
REM
REM
REM ./ABC.cell (e32783a7be585090ebb5c77828425f51)
REM ## AIRSS Version 0.9.3 July 2022 commit b0220bf5cbf550a3b7
REM compiler GCC version 11.4.0
REM options -cpp -imultiarch x86_64-linux-gnu -mtune=generic -march=x86-64 -g -Og -fpre-include=/usr/include/finclude/math-vector-fortran.h
REM cmdline: airss.pl -pp3 -max 1000 -seed ABC 
REM seed -1468691327 1731196133 -1131046801 1621713392 1602771548 -118294688 1790915472 -1533343117
REM
REM ABC.pp (b4a81987505b5d62180816d9c6bc34eb)
REM 
CELL 1.54180    2.12321    4.77232    4.53083   66.66607   90.00000   77.14701
LATT -1
SFAC A  B  C  
A      1  0.4114199056763  0.0427233354129  0.6695031718588 1.0
A      1  0.6803410554772  0.5048809954234  0.2086428869445 1.0
B      2  0.8906907107142  0.0841817263916  0.3491344450242 1.0
C      3  0.9840044996534  0.8975541268307  0.0504541700249 1.0
C      3  0.7460562160220  0.3734507414664  0.6768463163194 1.0
C      3  0.5324526579867  0.8006578028089  0.4174910703640 1.0
C      3  0.3163574660009  0.2328482208159  0.0651292449604 1.0
C      3  0.1015195884693  0.6625239508502  0.8020484945038 1.0
END
