TITL ABC-78-8314-823 -0.0000002540 25.4068495946 -44.3295417534 0 0  6 (Cm) n - 1
REM
REM Run started: at Fri Oct 6 14:32:46 BST 2023 in /home/michal/install/eddp/airss/examples/1.10
REM pp3 from code version ## 0.9.3 July 2022 commit b0220bf5cbf550a3b7
REM
REM
REM
REM Total runtime: s
REM
REM
REM ./ABC.cell (e32783a7be585090ebb5c77828425f51)
REM ## AIRSS Version 0.9.3 July 2022 commit b0220bf5cbf550a3b7
REM compiler GCC version 11.4.0
REM options -cpp -imultiarch x86_64-linux-gnu -mtune=generic -march=x86-64 -g -Og -fpre-include=/usr/include/finclude/math-vector-fortran.h
REM cmdline: airss.pl -pp3 -max 1000 -seed ABC 
REM seed -1620359666 -912665669 1781079906 145597015 261912711 2081971515 1623073314 -1509570018
REM
REM ABC.pp (b4a81987505b5d62180816d9c6bc34eb)
REM 
CELL 1.54180    2.65625    3.56084    3.38667   62.51303   66.91091   68.10037
LATT -1
SFAC A  B  C  
A      1  0.3846510399187  0.8850791798579  0.0173976541183 1.0
B      2  0.6938543968009  0.7876223737942  0.4964471093920 1.0
B      2  0.0353688304894  0.5217427324785  0.0792985433208 1.0
C      3  0.0333419602424  0.0581457142591  0.5469488218760 1.0
C      3  0.6678032389249  0.2727306105241  0.0634417206151 1.0
C      3  0.3101736336236  0.4608384890862  0.5905924506779 1.0
END
