TITL ABC-23792-6234-137 0.0000004753 34.0720419816 -59.7397527568 0 0  7 (Pmm2) n - 1
REM
REM Run started: at Mon Nov 6 13:35:00 GMT 2023 in /home/michal/install/eddp/airss/examples/1.10
REM pp3 from code version ## 0.9.3 July 2022 commit b0220bf5cbf550a3b7
REM
REM
REM
REM Total runtime: s
REM
REM
REM ./ABC.cell (e32783a7be585090ebb5c77828425f51)
REM ## AIRSS Version 0.9.3 July 2022 commit b0220bf5cbf550a3b7
REM compiler GCC version 11.4.0
REM options -cpp -imultiarch x86_64-linux-gnu -mtune=generic -march=x86-64 -g -Og -fpre-include=/usr/include/finclude/math-vector-fortran.h
REM cmdline: airss.pl -pp3 -max 1000 -seed ABC 
REM seed 154697564 2133382750 -483098971 -1750383022 1509368245 972900777 1460437079 -176659413
REM
REM ABC.pp (b4a81987505b5d62180816d9c6bc34eb)
REM 
CELL 1.54180    2.18256    3.39541    4.59768   90.00004   90.00000   90.00000
LATT -1
SFAC A  B  C  
A      1  0.6778972546618  0.3673418825948  0.1809186218194 1.0
A      1  0.1778972576706  0.8685524780071  0.4106089483119 1.0
A      1  0.1778972573867  0.8685527865868  0.9512282696458 1.0
B      2  0.1778972571083  0.3672256182974  0.4717319619390 1.0
B      2  0.1778972568537  0.3672258754951  0.8901052800770 1.0
B      2  0.6778972559139  0.7031089361333  0.6809185944152 1.0
C      3  0.6778972604049  0.1781750228855  0.6809186237917 1.0
END
