TITL ABC-78-8314-246 0.0000000266 32.8824441044 -49.3176735041 0 0  6 (C2/m) n - 1
REM
REM Run started: at Fri Oct 6 14:21:30 BST 2023 in /home/michal/install/eddp/airss/examples/1.10
REM pp3 from code version ## 0.9.3 July 2022 commit b0220bf5cbf550a3b7
REM
REM
REM
REM Total runtime: s
REM
REM
REM ./ABC.cell (e32783a7be585090ebb5c77828425f51)
REM ## AIRSS Version 0.9.3 July 2022 commit b0220bf5cbf550a3b7
REM compiler GCC version 11.4.0
REM options -cpp -imultiarch x86_64-linux-gnu -mtune=generic -march=x86-64 -g -Og -fpre-include=/usr/include/finclude/math-vector-fortran.h
REM cmdline: airss.pl -pp3 -max 1000 -seed ABC 
REM seed -475995552 1926561690 1480287460 -856696412 1548361971 -1548153401 870244353 -549119844
REM
REM ABC.pp (b4a81987505b5d62180816d9c6bc34eb)
REM 
CELL 1.54180    2.16447    4.48328    3.51291   83.90658   90.00000   76.03118
LATT -1
SFAC A  B  C  
A      1  0.5358749474074  0.2534573056972  0.1619612883158 1.0
A      1  0.1330022904275  0.0592026185588  0.6911441116933 1.0
A      1  0.8344381229585  0.6563309541626  0.9265433356804 1.0
B      2  0.8344452740382  0.6563166518884  0.4265416798220 1.0
C      3  0.4525588224048  0.4200895546482  0.6291438605857 1.0
C      3  0.2163221427637  0.8925629150448  0.2239638239028 1.0
END
