TITL ABC-23792-6234-35 -0.0000000354 22.6484708500 -45.5203615026 0 0  5 (C2/m) n - 1
REM
REM Run started: at Mon Nov 6 13:33:11 GMT 2023 in /home/michal/install/eddp/airss/examples/1.10
REM pp3 from code version ## 0.9.3 July 2022 commit b0220bf5cbf550a3b7
REM
REM
REM
REM Total runtime: s
REM
REM
REM ./ABC.cell (e32783a7be585090ebb5c77828425f51)
REM ## AIRSS Version 0.9.3 July 2022 commit b0220bf5cbf550a3b7
REM compiler GCC version 11.4.0
REM options -cpp -imultiarch x86_64-linux-gnu -mtune=generic -march=x86-64 -g -Og -fpre-include=/usr/include/finclude/math-vector-fortran.h
REM cmdline: airss.pl -pp3 -max 1000 -seed ABC 
REM seed 797750537 1214259233 -1230029731 -1488738922 1990677279 -398874999 -906958748 -1611051522
REM
REM ABC.pp (b4a81987505b5d62180816d9c6bc34eb)
REM 
CELL 1.54180    2.19748    3.74489    3.08332   94.06924  110.87613   72.93856
LATT -1
SFAC A  B  
A      1  0.9656693052965  0.9020758186460  0.0436062505011 1.0
A      1  0.0959516538719  0.3639248212487  0.7660199496757 1.0
B      2  0.5308104800315  0.1330003202362  0.4048130993563 1.0
B      2  0.7288570094078  0.5219310989458  0.1898369373776 1.0
B      2  0.3327639513923  0.7440695409232  0.6197892630894 1.0
END
