TITL ABC-78-8314-741 -0.0000001176 31.9911845585 -56.9615980957 0 0  7 (P1) n - 1
REM
REM Run started: at Fri Oct 6 14:31:11 BST 2023 in /home/michal/install/eddp/airss/examples/1.10
REM pp3 from code version ## 0.9.3 July 2022 commit b0220bf5cbf550a3b7
REM
REM
REM
REM Total runtime: s
REM
REM
REM ./ABC.cell (e32783a7be585090ebb5c77828425f51)
REM ## AIRSS Version 0.9.3 July 2022 commit b0220bf5cbf550a3b7
REM compiler GCC version 11.4.0
REM options -cpp -imultiarch x86_64-linux-gnu -mtune=generic -march=x86-64 -g -Og -fpre-include=/usr/include/finclude/math-vector-fortran.h
REM cmdline: airss.pl -pp3 -max 1000 -seed ABC 
REM seed -934532239 -1889703004 -1685648376 -2042634222 -412171098 510358322 961894812 -542758997
REM
REM ABC.pp (b4a81987505b5d62180816d9c6bc34eb)
REM 
CELL 1.54180    3.19577    3.37639    3.31259   80.42415   77.47981   67.01958
LATT -1
SFAC A  B  C  
A      1  0.3298382200249  0.8165738943580  0.8937827837653 1.0
A      1  0.4413057066608  0.3637449981165  0.4682943340607 1.0
B      2  0.4997716079048  0.8623809225366  0.3476461789997 1.0
B      2  0.8813361227470  0.4375865027243  0.6617947775770 1.0
C      3  0.6758315984708  0.1284978899697  0.9635011112884 1.0
C      3  0.9824867771551  0.4523677272234  0.1225476689458 1.0
C      3  0.9740542670366  0.8919986650715  0.4554454453633 1.0
END
