TITL ABC-78-8314-476 0.0000000659 17.1673733273 -18.8946518448 0 0  4 (Immm) n - 1
REM
REM Run started: at Fri Oct 6 14:25:57 BST 2023 in /home/michal/install/eddp/airss/examples/1.10
REM pp3 from code version ## 0.9.3 July 2022 commit b0220bf5cbf550a3b7
REM
REM
REM
REM Total runtime: s
REM
REM
REM ./ABC.cell (e32783a7be585090ebb5c77828425f51)
REM ## AIRSS Version 0.9.3 July 2022 commit b0220bf5cbf550a3b7
REM compiler GCC version 11.4.0
REM options -cpp -imultiarch x86_64-linux-gnu -mtune=generic -march=x86-64 -g -Og -fpre-include=/usr/include/finclude/math-vector-fortran.h
REM cmdline: airss.pl -pp3 -max 1000 -seed ABC 
REM seed 799371007 -727134289 276781533 -1351457577 -1431265933 294157095 -446856280 -916604020
REM
REM ABC.pp (b4a81987505b5d62180816d9c6bc34eb)
REM 
CELL 1.54180    2.00853    2.94149    3.40808   64.43432   72.86214   90.00000
LATT -1
SFAC B  C  
B      1  0.0511502248984  0.0559563197893  0.8260273756827 1.0
B      1  0.8332085003739  0.3380238546430  0.2619107407154 1.0
B      1  0.2690919485782  0.7739072278982  0.3901440131050 1.0
C      2  0.5511502261494  0.5559373976695  0.8260273704969 1.0
END
