TITL ABC-78-8314-201 0.0000000502 17.9261988361 -27.3283246881 0 0  3 (I4/mmm) n - 1
REM
REM Run started: at Fri Oct 6 14:20:36 BST 2023 in /home/michal/install/eddp/airss/examples/1.10
REM pp3 from code version ## 0.9.3 July 2022 commit b0220bf5cbf550a3b7
REM
REM
REM
REM Total runtime: s
REM
REM
REM ./ABC.cell (e32783a7be585090ebb5c77828425f51)
REM ## AIRSS Version 0.9.3 July 2022 commit b0220bf5cbf550a3b7
REM compiler GCC version 11.4.0
REM options -cpp -imultiarch x86_64-linux-gnu -mtune=generic -march=x86-64 -g -Og -fpre-include=/usr/include/finclude/math-vector-fortran.h
REM cmdline: airss.pl -pp3 -max 1000 -seed ABC 
REM seed 393612492 -148430620 1483999289 278149944 -1101997879 1046112341 -1743515429 -1880566638
REM
REM ABC.pp (b4a81987505b5d62180816d9c6bc34eb)
REM 
CELL 1.54180    2.19816    2.19816    4.02242   74.14294  105.85706   90.00000
LATT -1
SFAC A  C  
A      1  0.9813480083486  0.3591255764715  0.7405715440770 1.0
A      1  0.6838199249745  0.6566536927084  0.1455153225975 1.0
C      2  0.3325839666768  0.0078896308200  0.4430434333255 1.0
END
