TITL ABC-23792-6234-109 -0.0000001676 28.8220101592 -36.2810071817 0 0  7 (I4/mmm) n - 1
REM
REM Run started: at Mon Nov 6 13:34:31 GMT 2023 in /home/michal/install/eddp/airss/examples/1.10
REM pp3 from code version ## 0.9.3 July 2022 commit b0220bf5cbf550a3b7
REM
REM
REM
REM Total runtime: s
REM
REM
REM ./ABC.cell (e32783a7be585090ebb5c77828425f51)
REM ## AIRSS Version 0.9.3 July 2022 commit b0220bf5cbf550a3b7
REM compiler GCC version 11.4.0
REM options -cpp -imultiarch x86_64-linux-gnu -mtune=generic -march=x86-64 -g -Og -fpre-include=/usr/include/finclude/math-vector-fortran.h
REM cmdline: airss.pl -pp3 -max 1000 -seed ABC 
REM seed -252492211 -479264653 8431251 -1966791670 1927646110 -2116756529 20768340 101987692
REM
REM ABC.pp (b4a81987505b5d62180816d9c6bc34eb)
REM 
CELL 1.54180    1.93972    1.93972    7.78212   82.84080   82.84080   90.00000
LATT -1
SFAC B  C  
B      1 -0.3829086444979 -0.5612346328291  0.7928110228112 1.0
B      1 -0.2104721814474 -0.3887981672969  0.4479380917537 1.0
B      1  0.4956228042968  0.3172968280987  0.0357481009174 1.0
B      1  0.2033095799650  0.0249836000786  0.6203745569600 1.0
B      1 -0.0890036450776  0.7326703718155  0.2050010135077 1.0
C      2  0.0559715465613 -0.1223544474930  0.9150506521542 1.0
C      2  0.3506476401999  0.1723216476261  0.3256984618958 1.0
END
