TITL ABC-24937-8325-87 -0.0000012957 34.9333978364 -52.9590607553 0 0  6 (C2/m) n - 1
REM
REM Run started: at Mon Nov 6 13:20:35 GMT 2023 in /home/michal/install/eddp/airss/examples/1.10
REM pp3 from code version ## 0.9.3 July 2022 commit b0220bf5cbf550a3b7
REM
REM
REM
REM Total runtime: s
REM
REM
REM ./ABC.cell (e32783a7be585090ebb5c77828425f51)
REM ## AIRSS Version 0.9.3 July 2022 commit b0220bf5cbf550a3b7
REM compiler GCC version 11.4.0
REM options -cpp -imultiarch x86_64-linux-gnu -mtune=generic -march=x86-64 -g -Og -fpre-include=/usr/include/finclude/math-vector-fortran.h
REM cmdline: airss.pl -pp3 -max 1000 -seed ABC 
REM seed -1854192424 -488278947 -68862490 1179240231 -1535311030 -77512455 -1027654027 1373806968
REM
REM ABC.pp (b4a81987505b5d62180816d9c6bc34eb)
REM 
CELL 1.54180    2.21119    3.87175    4.43049  105.36825   90.00000  106.59201
LATT -1
SFAC A  B  
A      1  1.6063915176268  0.8158543517082  0.3187560183866 1.0
A      1  0.8403544583794  0.2837802331021  0.1093546670866 1.0
A      1  0.3724285738504  0.3479284648075  0.5281573615182 1.0
A      1  1.1063915165838  0.8158543498330  0.8187560171799 1.0
B      2  1.4591697842343  0.5214108855020  0.9349038168375 1.0
B      2  0.7536132493254  0.1102978150473  0.7026082189913 1.0
END
