TITL ABC-10487-7284-38 -0.0000013266 10.0268722395 -8.3554660884 0 0  2 (Fm-3m) n - 1
REM
REM Run started: at Mon Nov 6 13:30:40 GMT 2023 in /home/michal/install/eddp/airss/examples/1.10
REM pp3 from code version ## 0.9.3 July 2022 commit b0220bf5cbf550a3b7
REM
REM
REM
REM Total runtime: s
REM
REM
REM ./ABC.cell (e32783a7be585090ebb5c77828425f51)
REM ## AIRSS Version 0.9.3 July 2022 commit b0220bf5cbf550a3b7
REM compiler GCC version 11.4.0
REM options -cpp -imultiarch x86_64-linux-gnu -mtune=generic -march=x86-64 -g -Og -fpre-include=/usr/include/finclude/math-vector-fortran.h
REM cmdline: airss.pl -pp3 -max 1000 -seed ABC 
REM seed -1262763343 1141088449 -1130075341 -2013342174 -934351071 651204234 -259875959 -510840668
REM
REM ABC.pp (b4a81987505b5d62180816d9c6bc34eb)
REM 
CELL 1.54180    1.92110    1.92110    2.71685   90.00000   90.00000   90.00000
LATT -1
SFAC B  
B      1  0.4773335500101  0.3443220998365  0.8941604502897 1.0
B      1  0.9773335499899  0.8443221001636  0.3941604497103 1.0
END
