TITL ABC-17872-7102-29 0.0000000001 25.0671805208 -20.8886652211 0 0  5 (Fm-3m) n - 1
REM
REM Run started: at Mon Nov 6 13:22:44 GMT 2023 in /home/michal/install/eddp/airss/examples/1.10
REM pp3 from code version ## 0.9.3 July 2022 commit b0220bf5cbf550a3b7
REM
REM
REM
REM Total runtime: s
REM
REM
REM ./ABC.cell (e32783a7be585090ebb5c77828425f51)
REM ## AIRSS Version 0.9.3 July 2022 commit b0220bf5cbf550a3b7
REM compiler GCC version 11.4.0
REM options -cpp -imultiarch x86_64-linux-gnu -mtune=generic -march=x86-64 -g -Og -fpre-include=/usr/include/finclude/math-vector-fortran.h
REM cmdline: airss.pl -pp3 -max 1000 -seed ABC 
REM seed 694293584 2111592693 -1622570723 1432345861 966839779 -1330839438 -637087243 -106269378
REM
REM ABC.pp (b4a81987505b5d62180816d9c6bc34eb)
REM 
CELL 1.54180    2.71685    3.32744    3.32744   80.40593  114.09484  114.09484
LATT -1
SFAC B  
B      1  0.0097297000454  0.7329863401909  0.1491118198868 1.0
B      1  0.4097296998488  0.3329863397447  0.3491118199565 1.0
B      1  0.8097297000612  0.9329863400884  0.5491118200309 1.0
B      1  0.6097296999534  0.1329863398397  0.9491118200747 1.0
B      1  0.2097297000912  0.5329863401363  0.7491118200512 1.0
END
