TITL ABC-24937-8325-25 0.0000009574 21.5781259602 -33.6963999522 0 0  4 (Imm2) n - 1
REM
REM Run started: at Mon Nov 6 13:19:32 GMT 2023 in /home/michal/install/eddp/airss/examples/1.10
REM pp3 from code version ## 0.9.3 July 2022 commit b0220bf5cbf550a3b7
REM
REM
REM
REM Total runtime: s
REM
REM
REM ./ABC.cell (e32783a7be585090ebb5c77828425f51)
REM ## AIRSS Version 0.9.3 July 2022 commit b0220bf5cbf550a3b7
REM compiler GCC version 11.4.0
REM options -cpp -imultiarch x86_64-linux-gnu -mtune=generic -march=x86-64 -g -Og -fpre-include=/usr/include/finclude/math-vector-fortran.h
REM cmdline: airss.pl -pp3 -max 1000 -seed ABC 
REM seed 188014207 -848225629 -807443386 887891997 -183470614 116380467 317759011 1460638926
REM
REM ABC.pp (b4a81987505b5d62180816d9c6bc34eb)
REM 
CELL 1.54180    2.12823    3.50911    3.50911   61.65183  107.65250  107.65239
LATT -1
SFAC A  B  C  
A      1  0.3978468034837  0.8889379737622  0.9157629068233 1.0
A      1  0.7914542890482  0.2825465884172  0.3093715216989 1.0
B      2  0.0946515547805  0.8354794794788  0.3628300227009 1.0
C      3  0.0946490526875  0.3908093583417  0.8075001487769 1.0
END
