TITL ABC-78-8314-219 -0.0000000120 10.6123614808 -19.0477454010 0 0  2 (Pm-3m) n - 1
REM
REM Run started: at Fri Oct 6 14:20:58 BST 2023 in /home/michal/install/eddp/airss/examples/1.10
REM pp3 from code version ## 0.9.3 July 2022 commit b0220bf5cbf550a3b7
REM
REM
REM
REM Total runtime: s
REM
REM
REM ./ABC.cell (e32783a7be585090ebb5c77828425f51)
REM ## AIRSS Version 0.9.3 July 2022 commit b0220bf5cbf550a3b7
REM compiler GCC version 11.4.0
REM options -cpp -imultiarch x86_64-linux-gnu -mtune=generic -march=x86-64 -g -Og -fpre-include=/usr/include/finclude/math-vector-fortran.h
REM cmdline: airss.pl -pp3 -max 1000 -seed ABC 
REM seed -1464645138 1949074999 -494662884 1877841197 -1829473108 -1312214112 -2036597832 816045821
REM
REM ABC.pp (b4a81987505b5d62180816d9c6bc34eb)
REM 
CELL 1.54180    2.19754    2.19754    2.19754   89.99999   90.00000   90.00000
LATT -1
SFAC A  C  
A      1  0.6179432500002  0.0230974999828  0.4969256505690 1.0
C      2  0.1179432499998  0.5230975000172  0.9969256494310 1.0
END
