TITL ABC-78-8314-762 -0.0000001285 14.7135495719 -16.7109321769 0 0  2 (Fm-3m) n - 1
REM
REM Run started: at Fri Oct 6 14:31:36 BST 2023 in /home/michal/install/eddp/airss/examples/1.10
REM pp3 from code version ## 0.9.3 July 2022 commit b0220bf5cbf550a3b7
REM
REM
REM
REM Total runtime: s
REM
REM
REM ./ABC.cell (e32783a7be585090ebb5c77828425f51)
REM ## AIRSS Version 0.9.3 July 2022 commit b0220bf5cbf550a3b7
REM compiler GCC version 11.4.0
REM options -cpp -imultiarch x86_64-linux-gnu -mtune=generic -march=x86-64 -g -Og -fpre-include=/usr/include/finclude/math-vector-fortran.h
REM cmdline: airss.pl -pp3 -max 1000 -seed ABC 
REM seed 2016447768 -195049257 -743904448 1758181831 -540712386 -833355314 1162214554 -1333664974
REM
REM ABC.pp (b4a81987505b5d62180816d9c6bc34eb)
REM 
CELL 1.54180    2.18307    2.18307    3.78119  106.77865  106.77865   60.00001
LATT -1
SFAC A  
A      1  0.7327110466401  0.2914168456393  0.3417644999890 1.0
A      1  0.2327110533599  0.7914168543607  0.8417645000110 1.0
END
