TITL ABC-78-8314-739 -0.0000000563 25.0671805664 -20.8886652208 0 0  5 (Fm-3m) n - 1
REM
REM Run started: at Fri Oct 6 14:31:09 BST 2023 in /home/michal/install/eddp/airss/examples/1.10
REM pp3 from code version ## 0.9.3 July 2022 commit b0220bf5cbf550a3b7
REM
REM
REM
REM Total runtime: s
REM
REM
REM ./ABC.cell (e32783a7be585090ebb5c77828425f51)
REM ## AIRSS Version 0.9.3 July 2022 commit b0220bf5cbf550a3b7
REM compiler GCC version 11.4.0
REM options -cpp -imultiarch x86_64-linux-gnu -mtune=generic -march=x86-64 -g -Og -fpre-include=/usr/include/finclude/math-vector-fortran.h
REM cmdline: airss.pl -pp3 -max 1000 -seed ABC 
REM seed -1342285993 1539868732 1003203990 -673167533 -2128772837 468647369 787287873 1974315651
REM
REM ABC.pp (b4a81987505b5d62180816d9c6bc34eb)
REM 
CELL 1.54180    1.92110    3.32744    4.29571   97.41759  102.92094  106.77853
LATT -1
SFAC B  
B      1  0.4460380554978  0.3115985591126  0.4135603654558 1.0
B      1  0.2460380660302  0.5115985910989  0.8135603572041 1.0
B      1  0.6460380602736  0.1115986038386  0.0135603562511 1.0
B      1  0.8460380623139  0.9115985629472  0.6135603619232 1.0
B      1  0.0460380558845  0.7115985830027  0.2135603591657 1.0
END
