TITL ABC-23792-6234-110 -0.0000000577 53.0507425425 -65.0696363881 0 0  8 (C2) n - 1
REM
REM Run started: at Mon Nov 6 13:34:33 GMT 2023 in /home/michal/install/eddp/airss/examples/1.10
REM pp3 from code version ## 0.9.3 July 2022 commit b0220bf5cbf550a3b7
REM
REM
REM
REM Total runtime: s
REM
REM
REM ./ABC.cell (e32783a7be585090ebb5c77828425f51)
REM ## AIRSS Version 0.9.3 July 2022 commit b0220bf5cbf550a3b7
REM compiler GCC version 11.4.0
REM options -cpp -imultiarch x86_64-linux-gnu -mtune=generic -march=x86-64 -g -Og -fpre-include=/usr/include/finclude/math-vector-fortran.h
REM cmdline: airss.pl -pp3 -max 1000 -seed ABC 
REM seed -325570304 -603203551 -1769623425 -1547863332 -1364417961 -1537004237 -244682683 1175154822
REM
REM ABC.pp (b4a81987505b5d62180816d9c6bc34eb)
REM 
CELL 1.54180    3.76078    4.09567    4.16465  108.93244   90.00014  117.33007
LATT -1
SFAC A  C  
A      1  1.9360419918824  0.9375774135000  0.6135789678834 1.0
A      1  1.4790942464798  0.9864218070694  0.8825966334020 1.0
A      1  0.9918292695571  0.4313719082564  0.4830329483803 1.0
A      1  0.4980349704723  0.4437818454645  0.7441205136410 1.0
A      1  0.9698167793846  0.9375762457200  0.1135786232016 1.0
A      1  1.4302497739171  0.8887325351347  0.3445605075902 1.0
C      2  0.5116513329819  0.4327170915069  0.2607753309379 1.0
C      2  1.0165124353248  0.4424379533481  0.9663785749635 1.0
END
