TITL ABC-23792-6234-37 0.0000012716 16.0892646729 -15.0398389592 0 0  3 (Fm-3m) n - 1
REM
REM Run started: at Mon Nov 6 13:33:13 GMT 2023 in /home/michal/install/eddp/airss/examples/1.10
REM pp3 from code version ## 0.9.3 July 2022 commit b0220bf5cbf550a3b7
REM
REM
REM
REM Total runtime: s
REM
REM
REM ./ABC.cell (e32783a7be585090ebb5c77828425f51)
REM ## AIRSS Version 0.9.3 July 2022 commit b0220bf5cbf550a3b7
REM compiler GCC version 11.4.0
REM options -cpp -imultiarch x86_64-linux-gnu -mtune=generic -march=x86-64 -g -Og -fpre-include=/usr/include/finclude/math-vector-fortran.h
REM cmdline: airss.pl -pp3 -max 1000 -seed ABC 
REM seed 1477308389 200271742 -1711037029 -546697318 1382126318 -929888646 1146068789 1059469047
REM
REM ABC.pp (b4a81987505b5d62180816d9c6bc34eb)
REM 
CELL 1.54180    1.96476    1.96476    4.39334  102.92097   77.07903   90.00000
LATT -1
SFAC C  
C      1  0.8821624479037  0.5308161736982  0.3627312997954 1.0
C      1  0.5488291683993  0.8641496209813  0.0293979568288 1.0
C      1  0.2154956836970  0.1974828053204  0.6960646433758 1.0
END
