TITL ABC-78-8314-549 -0.0000366932 42.6111333150 -67.8371234959 0 0  8 (P1) n - 1
REM
REM Run started: at Fri Oct 6 14:27:25 BST 2023 in /home/michal/install/eddp/airss/examples/1.10
REM pp3 from code version ## 0.9.3 July 2022 commit b0220bf5cbf550a3b7
REM
REM
REM
REM Total runtime: s
REM
REM
REM ./ABC.cell (e32783a7be585090ebb5c77828425f51)
REM ## AIRSS Version 0.9.3 July 2022 commit b0220bf5cbf550a3b7
REM compiler GCC version 11.4.0
REM options -cpp -imultiarch x86_64-linux-gnu -mtune=generic -march=x86-64 -g -Og -fpre-include=/usr/include/finclude/math-vector-fortran.h
REM cmdline: airss.pl -pp3 -max 1000 -seed ABC 
REM seed -145421411 -620992449 -362155796 981534237 -45700782 -32772773 1910110447 -1456608154
REM
REM ABC.pp (b4a81987505b5d62180816d9c6bc34eb)
REM 
CELL 1.54180    3.41761    4.34282    4.26240   61.19738   73.96979  111.87387
LATT -1
SFAC A  B  C  
A      1  0.7321790958381  0.1326472055981  0.7375089014428 1.0
A      1  0.5629822160973  0.7346583079946  0.4374199381988 1.0
A      1  0.1324270064343  0.4904818796277  0.0675092064657 1.0
A      1  0.3113509314150  0.1070629870460  0.4424663445046 1.0
B      2  0.7354191104634  0.6875029658477  0.0536132863898 1.0
B      2  0.1241781098654  0.7396089344558  0.3038196290227 1.0
C      3  0.1743410460776  0.1353046496597  0.9103054442153 1.0
C      3  0.7688279838088  0.5196101697704  0.8101012497604 1.0
END
