TITL ABC-78-8314-824 0.0000001083 7.7255748001 -11.3604380752 0 0  2 (R-3m) n - 1
REM
REM Run started: at Fri Oct 6 14:32:47 BST 2023 in /home/michal/install/eddp/airss/examples/1.10
REM pp3 from code version ## 0.9.3 July 2022 commit b0220bf5cbf550a3b7
REM
REM
REM
REM Total runtime: s
REM
REM
REM ./ABC.cell (e32783a7be585090ebb5c77828425f51)
REM ## AIRSS Version 0.9.3 July 2022 commit b0220bf5cbf550a3b7
REM compiler GCC version 11.4.0
REM options -cpp -imultiarch x86_64-linux-gnu -mtune=generic -march=x86-64 -g -Og -fpre-include=/usr/include/finclude/math-vector-fortran.h
REM cmdline: airss.pl -pp3 -max 1000 -seed ABC 
REM seed 1750523005 954854259 1678308290 482196345 -1434150809 989621457 -695364357 897195202
REM
REM ABC.pp (b4a81987505b5d62180816d9c6bc34eb)
REM 
CELL 1.54180    1.97984    1.97984    2.54676   67.12645   67.12644   60.00001
LATT -1
SFAC B  C  
B      1  0.3934087018113  0.2658610462606  0.2251361000000 1.0
C      2  0.8934086981887  0.7658610537394  0.7251361000000 1.0
END
