TITL ABC-78-8314-169 0.0000002613 24.2175063432 -44.3278542067 0 0  5 (C2/m) n - 1
REM
REM Run started: at Fri Oct 6 14:20:00 BST 2023 in /home/michal/install/eddp/airss/examples/1.10
REM pp3 from code version ## 0.9.3 July 2022 commit b0220bf5cbf550a3b7
REM
REM
REM
REM Total runtime: s
REM
REM
REM ./ABC.cell (e32783a7be585090ebb5c77828425f51)
REM ## AIRSS Version 0.9.3 July 2022 commit b0220bf5cbf550a3b7
REM compiler GCC version 11.4.0
REM options -cpp -imultiarch x86_64-linux-gnu -mtune=generic -march=x86-64 -g -Og -fpre-include=/usr/include/finclude/math-vector-fortran.h
REM cmdline: airss.pl -pp3 -max 1000 -seed ABC 
REM seed 1762294875 1338121947 -1476450005 -1476428643 1352653684 -1112558114 -538173934 -1515694952
REM
REM ABC.pp (b4a81987505b5d62180816d9c6bc34eb)
REM 
CELL 1.54180    2.12164    3.51911    3.56340   84.71841  107.31941  107.54440
LATT -1
SFAC A  B  C  
A      1  0.0445401257280  0.4486437258838  0.1025724610158 1.0
A      1  0.9233730360434  0.8991074740930  0.4097745389638 1.0
B      2  0.4839565783169  0.6738756000457  0.7561735000141 1.0
C      3  0.7229246954478  0.3457614182268  0.5622239239701 1.0
C      3  0.2449884644638  0.0019897817506  0.9501230760362 1.0
END
