TITL ABC-24937-8325-37 0.0000003789 16.0892660885 -15.0398389592 0 0  3 (Fm-3m) n - 1
REM
REM Run started: at Mon Nov 6 13:19:44 GMT 2023 in /home/michal/install/eddp/airss/examples/1.10
REM pp3 from code version ## 0.9.3 July 2022 commit b0220bf5cbf550a3b7
REM
REM
REM
REM Total runtime: s
REM
REM
REM ./ABC.cell (e32783a7be585090ebb5c77828425f51)
REM ## AIRSS Version 0.9.3 July 2022 commit b0220bf5cbf550a3b7
REM compiler GCC version 11.4.0
REM options -cpp -imultiarch x86_64-linux-gnu -mtune=generic -march=x86-64 -g -Og -fpre-include=/usr/include/finclude/math-vector-fortran.h
REM cmdline: airss.pl -pp3 -max 1000 -seed ABC 
REM seed 1165243936 1130036243 900011228 -1205245986 455128208 -1583319390 -460139365 288480857
REM
REM ABC.pp (b4a81987505b5d62180816d9c6bc34eb)
REM 
CELL 1.54180    1.96476    3.40307    2.77859   65.90516   90.00000   73.22135
LATT -1
SFAC C  
C      1  0.2211233330398  0.5643124999944  0.6238945003941 1.0
C      1  0.8877900003090  0.2309791666710  0.2905611659910 1.0
C      1  0.5544566666512  0.8976458333346  0.9572278336149 1.0
END
