TITL ABC-78-8314-825 0.0000019546 27.2031346661 -39.1854337566 0 0  7 (C2/m) n - 1
REM
REM Run started: at Fri Oct 6 14:32:48 BST 2023 in /home/michal/install/eddp/airss/examples/1.10
REM pp3 from code version ## 0.9.3 July 2022 commit b0220bf5cbf550a3b7
REM
REM
REM
REM Total runtime: s
REM
REM
REM ./ABC.cell (e32783a7be585090ebb5c77828425f51)
REM ## AIRSS Version 0.9.3 July 2022 commit b0220bf5cbf550a3b7
REM compiler GCC version 11.4.0
REM options -cpp -imultiarch x86_64-linux-gnu -mtune=generic -march=x86-64 -g -Og -fpre-include=/usr/include/finclude/math-vector-fortran.h
REM cmdline: airss.pl -pp3 -max 1000 -seed ABC 
REM seed 1055468868 1801936952 907916718 -360867336 901469172 -375632664 -94672922 624078932
REM
REM ABC.pp (b4a81987505b5d62180816d9c6bc34eb)
REM 
CELL 1.54180    1.94097    3.60186    4.15499   77.02772   90.00000   74.36905
LATT -1
SFAC B  C  
B      1  0.1265651728157  0.1135109400849  0.3089387258872 1.0
B      1 -0.7358592927495  0.8383598712143  0.7604185858633 1.0
B      1 -0.1298566198741  0.6263545254613  0.4057915285313 1.0
B      1  0.0077189095745  0.3512034665633  0.8572713953795 1.0
C      2 -0.3034938551324  0.9736289959759  0.0425203177544 1.0
C      2  0.5671420430505  0.2323571996134  0.5831050497207 1.0
C      2  0.4377779423153  0.4910854010868  0.1236897968636 1.0
END
