TITL ABC-78-8314-398 -0.0000001880 24.6039229000 -34.1926601589 0 0  6 (I4/mmm) n - 1
REM
REM Run started: at Fri Oct 6 14:24:27 BST 2023 in /home/michal/install/eddp/airss/examples/1.10
REM pp3 from code version ## 0.9.3 July 2022 commit b0220bf5cbf550a3b7
REM
REM
REM
REM Total runtime: s
REM
REM
REM ./ABC.cell (e32783a7be585090ebb5c77828425f51)
REM ## AIRSS Version 0.9.3 July 2022 commit b0220bf5cbf550a3b7
REM compiler GCC version 11.4.0
REM options -cpp -imultiarch x86_64-linux-gnu -mtune=generic -march=x86-64 -g -Og -fpre-include=/usr/include/finclude/math-vector-fortran.h
REM cmdline: airss.pl -pp3 -max 1000 -seed ABC 
REM seed -1078532114 1657787363 -1894135206 -264705282 -1724778060 2066330320 -385937971 -1459541708
REM
REM ABC.pp (b4a81987505b5d62180816d9c6bc34eb)
REM 
CELL 1.54180    1.93698    3.55344    3.87396  105.81604   90.00000  105.81604
LATT -1
SFAC B  C  
B      1  0.1135522085533  0.3841511502508  0.4914057002798 1.0
B      1  0.1135522226704  0.3841511485501  0.9914057039212 1.0
C      2  0.4691446386387  0.0953359881899  0.1692018997283 1.0
C      2  0.4691446460708  0.0953360035260  0.6692018958992 1.0
C      2  0.7579597932483  0.6729663067457  0.3136095021842 1.0
C      2  0.7579597908186  0.6729663027375  0.8136094979874 1.0
END
