TITL Al-26528-9441-1232 0.0000000000 8000.0000000000 -171.1171862060 0 0  38 (C1) n - 1
REM
REM Run started: at Wed Oct 4 19:31:42 BST 2023 in /home/michal/install/eddp/airss/examples/1.5
REM pp3 from code version ## 0.9.3 July 2022 commit b0220bf5cbf550a3b7
REM
REM
REM
REM Total runtime: s
REM
REM
REM ./Al.cell (866b2d16de845658482518565606d0c5)
REM ## AIRSS Version 0.9.3 July 2022 commit b0220bf5cbf550a3b7
REM compiler GCC version 11.4.0
REM options -cpp -imultiarch x86_64-linux-gnu -mtune=generic -march=x86-64 -g -Og -fpre-include=/usr/include/finclude/math-vector-fortran.h
REM cmdline: airss.pl -pp3 -cluster -max 3000 -num 100 -amp 1.0 -seed Al 
REM seed 1378201232 -1016322800 477849348 1568479 1922271328 2107207576 -939652431 -1232919682
REM
REM Al.pp (e4fc5d4412d1ecf009fcd5f92cd21f1b)
REM 
CELL 1.54180   20.00000   20.00000   20.00000   90.00000   90.00000   90.00000
LATT -1
SFAC Al 
Al     1  0.3580744581353  0.4508788586724  0.5118970365256 1.0
Al     1  0.6317894979142  0.4039690288191  0.5690410827843 1.0
Al     1  0.5563024348045  0.6223090046685  0.4100583092504 1.0
Al     1  0.4618085008495  0.4682059991679  0.5321094509182 1.0
Al     1  0.5656242066965  0.4872226808368  0.5473366646378 1.0
Al     1  0.5955879267495  0.3527067532378  0.4758835482823 1.0
Al     1  0.6016592671128  0.4058941111979  0.3777696371469 1.0
Al     1  0.4896903925042  0.5596473689078  0.5782335734819 1.0
Al     1  0.3735796505615  0.5656691775488  0.4020887739229 1.0
Al     1  0.4172052999773  0.3920831878354  0.5923678164093 1.0
Al     1  0.5800310166486  0.5139910929171  0.3941189671281 1.0
Al     1  0.3951110862640  0.5041011061178  0.6079571132934 1.0
Al     1  0.3282925057214  0.4621215199555  0.4052739811190 1.0
Al     1  0.4514825435956  0.6321822593761  0.4466390602202 1.0
Al     1  0.5376114849715  0.6389285667064  0.5186199584903 1.0
Al     1  0.4014455285393  0.4897611973288  0.3250607355902 1.0
Al     1  0.5306498329368  0.4380095146156  0.4562675139213 1.0
Al     1  0.5089482830179  0.5440359782471  0.4724388310711 1.0
Al     1  0.5234672577999  0.3832795793129  0.5534332426614 1.0
Al     1  0.4088253299501  0.3886441513651  0.3739174061384 1.0
Al     1  0.6055829163115  0.4827979643245  0.6480870197103 1.0
Al     1  0.6378293055143  0.4566293956479  0.4703543793905 1.0
Al     1  0.4324775978274  0.4783713464439  0.4308265636326 1.0
Al     1  0.4239246817628  0.6435986047778  0.3396534850542 1.0
Al     1  0.4381034096685  0.3772801199075  0.4802563960094 1.0
Al     1  0.6151929522208  0.5649494157297  0.4866012727967 1.0
Al     1  0.5959726434911  0.5814130460953  0.5950084542822 1.0
Al     1  0.4322002187222  0.6494634069522  0.5553282354129 1.0
Al     1  0.5014806286201  0.4466985990551  0.3509168307669 1.0
Al     1  0.5096300294324  0.3465826945019  0.4015210990790 1.0
Al     1  0.4801649249513  0.5542213809498  0.3681490334464 1.0
Al     1  0.6731967686230  0.5076828277623  0.5628153370034 1.0
Al     1  0.5656329254159  0.3791467520140  0.6550138037247 1.0
Al     1  0.5182420421251  0.6547641358325  0.6270406512716 1.0
Al     1  0.4257485054338  0.5991098479885  0.6566181801718 1.0
Al     1  0.5280831416324  0.5569027747440  0.6805229338641 1.0
Al     1  0.4023086570870  0.5543865283771  0.5077930779026 1.0
Al     1  0.4970422464101  0.4623600220617  0.6329803434888 1.0
END
