TITL Al-26528-9441-2996 0.0000000000 8000.0000000000 -170.7935948014 0 0  38 (Cs) n - 1
REM
REM Run started: at Wed Oct 4 19:40:38 BST 2023 in /home/michal/install/eddp/airss/examples/1.5
REM pp3 from code version ## 0.9.3 July 2022 commit b0220bf5cbf550a3b7
REM
REM
REM
REM Total runtime: s
REM
REM
REM ./Al.cell (866b2d16de845658482518565606d0c5)
REM ## AIRSS Version 0.9.3 July 2022 commit b0220bf5cbf550a3b7
REM compiler GCC version 11.4.0
REM options -cpp -imultiarch x86_64-linux-gnu -mtune=generic -march=x86-64 -g -Og -fpre-include=/usr/include/finclude/math-vector-fortran.h
REM cmdline: airss.pl -pp3 -cluster -max 3000 -num 100 -amp 1.0 -seed Al 
REM seed 1144077516 1253044455 -800840049 -1203332283 -2016623080 427587113 663007392 -454714252
REM
REM Al.pp (e4fc5d4412d1ecf009fcd5f92cd21f1b)
REM 
CELL 1.54180   20.00000   20.00000   20.00000   90.00000   90.00000   90.00000
LATT -1
SFAC Al 
Al     1  0.3662942141142  0.5517703588738  0.3930763531913 1.0
Al     1  0.6373063278819  0.5161523777251  0.5534857375320 1.0
Al     1  0.4691470298855  0.3494612127895  0.6709086255828 1.0
Al     1  0.6357158602985  0.6164887225321  0.4987209771517 1.0
Al     1  0.4603007136867  0.4253776251485  0.3895464749746 1.0
Al     1  0.6269357002813  0.4654077457625  0.4548865796219 1.0
Al     1  0.4255239901437  0.6261466335666  0.4565071879055 1.0
Al     1  0.3864655469299  0.5360020225404  0.6104386416335 1.0
Al     1  0.3928498604139  0.3780005652048  0.5901811266058 1.0
Al     1  0.4996788353255  0.3841707483635  0.5717783942576 1.0
Al     1  0.3641304121612  0.5471887902966  0.5031517718003 1.0
Al     1  0.5286379621245  0.4436885659299  0.2997471049231 1.0
Al     1  0.5266055460522  0.6504277178413  0.4961416704749 1.0
Al     1  0.4823299026674  0.6623012415189  0.6001380257040 1.0
Al     1  0.4663655759572  0.5701660522975  0.5427915263184 1.0
Al     1  0.3823123350448  0.6382743596873  0.5609212775813 1.0
Al     1  0.5551573015390  0.5447622600058  0.4860816121708 1.0
Al     1  0.5161860037352  0.6000322244068  0.3974373242793 1.0
Al     1  0.6333242997283  0.4688373470553  0.3407961746391 1.0
Al     1  0.5321744830851  0.4902668390105  0.5768702236672 1.0
Al     1  0.5676833453663  0.5960859870044  0.5829680841318 1.0
Al     1  0.5954477163609  0.5225813606175  0.6595495739131 1.0
Al     1  0.5432933473671  0.4952304384920  0.3925122882447 1.0
Al     1  0.3695981232565  0.4518444878706  0.4485118417676 1.0
Al     1  0.4881294793498  0.5604247500636  0.6503025875078 1.0
Al     1  0.5637528940712  0.5532206784548  0.3048070236513 1.0
Al     1  0.4537746455187  0.4554323131295  0.6451919623240 1.0
Al     1  0.4363197501312  0.3703620124511  0.4836538382090 1.0
Al     1  0.5684141285559  0.3905004040694  0.3926101773898 1.0
Al     1  0.5597495227874  0.4180921647668  0.6556235481109 1.0
Al     1  0.4331560309864  0.4664807825365  0.5380435650290 1.0
Al     1  0.5217556687342  0.4404007306870  0.4810289422934 1.0
Al     1  0.4553563586141  0.5207882577894  0.4469480961452 1.0
Al     1  0.6034423928482  0.4105073813699  0.5491841047779 1.0
Al     1  0.4571361783839  0.5253299276196  0.3353777511220 1.0
Al     1  0.3256340673124  0.4577662496254  0.5537497566740 1.0
Al     1  0.6244209049114  0.5655165369898  0.4009725831043 1.0
Al     1  0.5454936443884  0.3345119259064  0.4853575655901 1.0
END
