TITL Al-578-8509-138 0.0000000000 8000.0000000000 -34.9223079880 0 0  12 (C2v) n - 1
REM
REM Run started: at Wed Oct 4 16:37:16 BST 2023 in /home/michal/install/eddp/airss/examples/1.3
REM pp3 from code version ## 0.9.3 July 2022 commit b0220bf5cbf550a3b7
REM
REM
REM
REM Total runtime: s
REM
REM
REM ./Al.cell (5b2acabb2af1bfc21170c061c07d0b41)
REM ## AIRSS Version 0.9.3 July 2022 commit b0220bf5cbf550a3b7
REM compiler GCC version 11.4.0
REM options -cpp -imultiarch x86_64-linux-gnu -mtune=generic -march=x86-64 -g -Og -fpre-include=/usr/include/finclude/math-vector-fortran.h
REM cmdline: airss.pl -pp3 -cluster -max 200 -seed Al 
REM seed -556825094 -1895936832 -392145099 2139455990 -896976161 -1997725561 -1997965214 -1519209726
REM
REM Al.pp (e4fc5d4412d1ecf009fcd5f92cd21f1b)
REM 
CELL 1.54180   20.00000   20.00000   20.00000   90.00000   90.00000   90.00000
LATT -1
SFAC Al 
Al     1  0.3960072736270  0.4577167976455  0.4679236591654 1.0
Al     1  0.4476229993331  0.5514816571090  0.4344737384740 1.0
Al     1  0.5263191467620  0.5948402901409  0.5002978976546 1.0
Al     1  0.5465952958100  0.4998160442059  0.4444160137013 1.0
Al     1  0.5734963866096  0.4484349647227  0.5403327288526 1.0
Al     1  0.4799100994136  0.4066770062332  0.5854849772909 1.0
Al     1  0.4196401540547  0.5937195666670  0.5343424797949 1.0
Al     1  0.4948024618402  0.4050763234553  0.4745059171318 1.0
Al     1  0.6236769546765  0.5432280121762  0.5123403406062 1.0
Al     1  0.5498777493965  0.5424968465375  0.5966306098241 1.0
Al     1  0.4661151776861  0.4564174918435  0.3805457420669 1.0
Al     1  0.4759364007907  0.5000949992633  0.5287056954374 1.0
END
