TITL Al-578-8509-88 0.0000000000 8000.0000000000 -18.8279820638 0 0  8 (Cs) n - 1
REM
REM Run started: at Wed Oct 4 16:35:37 BST 2023 in /home/michal/install/eddp/airss/examples/1.3
REM pp3 from code version ## 0.9.3 July 2022 commit b0220bf5cbf550a3b7
REM
REM
REM
REM Total runtime: s
REM
REM
REM ./Al.cell (5b2acabb2af1bfc21170c061c07d0b41)
REM ## AIRSS Version 0.9.3 July 2022 commit b0220bf5cbf550a3b7
REM compiler GCC version 11.4.0
REM options -cpp -imultiarch x86_64-linux-gnu -mtune=generic -march=x86-64 -g -Og -fpre-include=/usr/include/finclude/math-vector-fortran.h
REM cmdline: airss.pl -pp3 -cluster -max 200 -seed Al 
REM seed -935556785 1175013308 -265429913 -509642858 -289813423 134503900 -282468706 1460997912
REM
REM Al.pp (e4fc5d4412d1ecf009fcd5f92cd21f1b)
REM 
CELL 1.54180   20.00000   20.00000   20.00000   90.00000   90.00000   90.00000
LATT -1
SFAC Al 
Al     1  0.4069971164050  0.4937958705369  0.5776245609895 1.0
Al     1  0.5698907070249  0.4535013625757  0.4329217643389 1.0
Al     1  0.4640072975069  0.4504109277928  0.3953146041925 1.0
Al     1  0.4844648596518  0.4634844570207  0.5038318023676 1.0
Al     1  0.5075247905180  0.5465897797513  0.4315592848981 1.0
Al     1  0.4751778257772  0.5712058023699  0.5349991871758 1.0
Al     1  0.5157148547802  0.4947296817826  0.6061677694214 1.0
Al     1  0.5762226483361  0.5262823181700  0.5175811266162 1.0
END
