TITL Al-578-8509-170 0.0000000000 8000.0000000000 -39.7039755866 0 0  13 (C1) n - 1
REM
REM Run started: at Wed Oct 4 16:38:19 BST 2023 in /home/michal/install/eddp/airss/examples/1.3
REM pp3 from code version ## 0.9.3 July 2022 commit b0220bf5cbf550a3b7
REM
REM
REM
REM Total runtime: s
REM
REM
REM ./Al.cell (5b2acabb2af1bfc21170c061c07d0b41)
REM ## AIRSS Version 0.9.3 July 2022 commit b0220bf5cbf550a3b7
REM compiler GCC version 11.4.0
REM options -cpp -imultiarch x86_64-linux-gnu -mtune=generic -march=x86-64 -g -Og -fpre-include=/usr/include/finclude/math-vector-fortran.h
REM cmdline: airss.pl -pp3 -cluster -max 200 -seed Al 
REM seed -1579808140 335650034 1634052685 2055820780 -1925410119 -32933641 233212888 87049727
REM
REM Al.pp (e4fc5d4412d1ecf009fcd5f92cd21f1b)
REM 
CELL 1.54180   20.00000   20.00000   20.00000   90.00000   90.00000   90.00000
LATT -1
SFAC Al 
Al     1  0.5454044140479  0.5579094704057  0.4010973978809 1.0
Al     1  0.5133096359413  0.4023253780903  0.5002219908745 1.0
Al     1  0.5926182343992  0.5459990145058  0.5804981757833 1.0
Al     1  0.4106149197332  0.5520917796523  0.5238290718108 1.0
Al     1  0.4416950156121  0.5958997265682  0.4250201940724 1.0
Al     1  0.4721621554513  0.4932440578537  0.4542435424669 1.0
Al     1  0.5177035568649  0.5844509889359  0.5051323167765 1.0
Al     1  0.5778918985630  0.4916562467968  0.4851850751352 1.0
Al     1  0.4098487899144  0.4377688954256  0.5276990220764 1.0
Al     1  0.5852469152317  0.4326212026392  0.5803732937600 1.0
Al     1  0.4563882235809  0.5166489648864  0.3472635122331 1.0
Al     1  0.4963453294609  0.4948782265162  0.5636216516339 1.0
Al     1  0.4807708111990  0.3945061477238  0.6058145554961 1.0
END
