TITL Al-578-8509-192 0.0000000000 8000.0000000000 -15.5325396958 0 0  7 (C2) n - 1
REM
REM Run started: at Wed Oct 4 16:39:04 BST 2023 in /home/michal/install/eddp/airss/examples/1.3
REM pp3 from code version ## 0.9.3 July 2022 commit b0220bf5cbf550a3b7
REM
REM
REM
REM Total runtime: s
REM
REM
REM ./Al.cell (5b2acabb2af1bfc21170c061c07d0b41)
REM ## AIRSS Version 0.9.3 July 2022 commit b0220bf5cbf550a3b7
REM compiler GCC version 11.4.0
REM options -cpp -imultiarch x86_64-linux-gnu -mtune=generic -march=x86-64 -g -Og -fpre-include=/usr/include/finclude/math-vector-fortran.h
REM cmdline: airss.pl -pp3 -cluster -max 200 -seed Al 
REM seed 1053790577 391997728 -1845090963 1246484333 1758123131 -1054993084 169067096 -1692566835
REM
REM Al.pp (e4fc5d4412d1ecf009fcd5f92cd21f1b)
REM 
CELL 1.54180   20.00000   20.00000   20.00000   90.00000   90.00000   90.00000
LATT -1
SFAC Al 
Al     1  0.5131611303907  0.3853008799170  0.5209152867372 1.0
Al     1  0.4574633947056  0.5752702627126  0.4206805352552 1.0
Al     1  0.4496806429790  0.4644639592353  0.5687542402351 1.0
Al     1  0.4808543519243  0.4743019973194  0.4619347137646 1.0
Al     1  0.5617723369301  0.5509086571486  0.4540165189678 1.0
Al     1  0.4798751138593  0.5645108055943  0.5295367648249 1.0
Al     1  0.5571930292110  0.4852434380727  0.5441619402152 1.0
END
