TITL Al-578-8509-156 0.0000000000 8000.0000000000 -44.9056716668 0 0  14 (C1) n - 1
REM
REM Run started: at Wed Oct 4 16:37:51 BST 2023 in /home/michal/install/eddp/airss/examples/1.3
REM pp3 from code version ## 0.9.3 July 2022 commit b0220bf5cbf550a3b7
REM
REM
REM
REM Total runtime: s
REM
REM
REM ./Al.cell (5b2acabb2af1bfc21170c061c07d0b41)
REM ## AIRSS Version 0.9.3 July 2022 commit b0220bf5cbf550a3b7
REM compiler GCC version 11.4.0
REM options -cpp -imultiarch x86_64-linux-gnu -mtune=generic -march=x86-64 -g -Og -fpre-include=/usr/include/finclude/math-vector-fortran.h
REM cmdline: airss.pl -pp3 -cluster -max 200 -seed Al 
REM seed 1297073218 2053004899 938378917 360392562 -965475572 -186095131 -966825213 -909423533
REM
REM Al.pp (e4fc5d4412d1ecf009fcd5f92cd21f1b)
REM 
CELL 1.54180   20.00000   20.00000   20.00000   90.00000   90.00000   90.00000
LATT -1
SFAC Al 
Al     1  0.4131979276709  0.4879151643066  0.4706545888907 1.0
Al     1  0.5857181560826  0.5448604434092  0.4388802816601 1.0
Al     1  0.5526248889263  0.3984002924281  0.5518481090782 1.0
Al     1  0.5331713216892  0.4944127590671  0.6083384031049 1.0
Al     1  0.4687983039156  0.6541682493727  0.5346023508094 1.0
Al     1  0.5181000729611  0.4870355996717  0.5004066306276 1.0
Al     1  0.4465895432102  0.4354396124809  0.5649281153757 1.0
Al     1  0.4769703955108  0.3938846610871  0.4645451678762 1.0
Al     1  0.4977568621274  0.4842681515619  0.3944333687674 1.0
Al     1  0.4477560783220  0.5475671726055  0.5587734731234 1.0
Al     1  0.6201279425887  0.4911625664590  0.5358783193272 1.0
Al     1  0.4067190083862  0.4209475410157  0.3821701709317 1.0
Al     1  0.4789218364705  0.5777620264199  0.4543065645421 1.0
Al     1  0.5535475621386  0.5821758601146  0.5402344558853 1.0
END
