TITL Al-578-8509-167 0.0000000000 8000.0000000000 -15.5325396957 0 0  7 (C2) n - 1
REM
REM Run started: at Wed Oct 4 16:38:14 BST 2023 in /home/michal/install/eddp/airss/examples/1.3
REM pp3 from code version ## 0.9.3 July 2022 commit b0220bf5cbf550a3b7
REM
REM
REM
REM Total runtime: s
REM
REM
REM ./Al.cell (5b2acabb2af1bfc21170c061c07d0b41)
REM ## AIRSS Version 0.9.3 July 2022 commit b0220bf5cbf550a3b7
REM compiler GCC version 11.4.0
REM options -cpp -imultiarch x86_64-linux-gnu -mtune=generic -march=x86-64 -g -Og -fpre-include=/usr/include/finclude/math-vector-fortran.h
REM cmdline: airss.pl -pp3 -cluster -max 200 -seed Al 
REM seed -1317554547 -1473632799 1911137383 1941248101 -362007121 1224561284 -44237999 -248707078
REM
REM Al.pp (e4fc5d4412d1ecf009fcd5f92cd21f1b)
REM 
CELL 1.54180   20.00000   20.00000   20.00000   90.00000   90.00000   90.00000
LATT -1
SFAC Al 
Al     1  0.4132101188525  0.4236553822177  0.4798611713219 1.0
Al     1  0.5706261348432  0.5066918662992  0.5201554376602 1.0
Al     1  0.4888395152530  0.5787667587232  0.5468320007960 1.0
Al     1  0.5514256934732  0.5954927004221  0.4552440893485 1.0
Al     1  0.4739989497823  0.4691456310514  0.5617335389935 1.0
Al     1  0.5249483383978  0.4137677530799  0.4784692937122 1.0
Al     1  0.4769511493981  0.5124799082066  0.4577044681678 1.0
END
