TITL Al-578-8509-96 0.0000000000 8000.0000000000 -29.9185815728 0 0  11 (C1) n - 1
REM
REM Run started: at Wed Oct 4 16:35:53 BST 2023 in /home/michal/install/eddp/airss/examples/1.3
REM pp3 from code version ## 0.9.3 July 2022 commit b0220bf5cbf550a3b7
REM
REM
REM
REM Total runtime: s
REM
REM
REM ./Al.cell (5b2acabb2af1bfc21170c061c07d0b41)
REM ## AIRSS Version 0.9.3 July 2022 commit b0220bf5cbf550a3b7
REM compiler GCC version 11.4.0
REM options -cpp -imultiarch x86_64-linux-gnu -mtune=generic -march=x86-64 -g -Og -fpre-include=/usr/include/finclude/math-vector-fortran.h
REM cmdline: airss.pl -pp3 -cluster -max 200 -seed Al 
REM seed -486811560 -1375361197 264282565 -1002025695 1146231338 363924666 1902731582 -2015101377
REM
REM Al.pp (e4fc5d4412d1ecf009fcd5f92cd21f1b)
REM 
CELL 1.54180   20.00000   20.00000   20.00000   90.00000   90.00000   90.00000
LATT -1
SFAC Al 
Al     1  0.4544340363707  0.3547743120954  0.5031837238788 1.0
Al     1  0.5097191255598  0.4374937799749  0.5532512736429 1.0
Al     1  0.5641229575348  0.4967788968913  0.4756805411513 1.0
Al     1  0.4663889986872  0.4510966377062  0.4491570331104 1.0
Al     1  0.5497733641676  0.6051218701937  0.4963368094394 1.0
Al     1  0.4675440425175  0.5345043353050  0.5225628599772 1.0
Al     1  0.5556271200298  0.3861286436733  0.4654042538688 1.0
Al     1  0.4909244953749  0.5549895320743  0.4154044324321 1.0
Al     1  0.3866265326312  0.5289650077466  0.4468829244091 1.0
Al     1  0.5628015781618  0.5320089810657  0.5809252229546 1.0
Al     1  0.4920377489648  0.6181379032735  0.5912109251353 1.0
END
