TITL Al-578-8509-147 0.0000000000 8000.0000000000 -34.4876347459 0 0  12 (Cs) n - 1
REM
REM Run started: at Wed Oct 4 16:37:34 BST 2023 in /home/michal/install/eddp/airss/examples/1.3
REM pp3 from code version ## 0.9.3 July 2022 commit b0220bf5cbf550a3b7
REM
REM
REM
REM Total runtime: s
REM
REM
REM ./Al.cell (5b2acabb2af1bfc21170c061c07d0b41)
REM ## AIRSS Version 0.9.3 July 2022 commit b0220bf5cbf550a3b7
REM compiler GCC version 11.4.0
REM options -cpp -imultiarch x86_64-linux-gnu -mtune=generic -march=x86-64 -g -Og -fpre-include=/usr/include/finclude/math-vector-fortran.h
REM cmdline: airss.pl -pp3 -cluster -max 200 -seed Al 
REM seed 1571936404 373499705 -1979329608 -341096436 545915252 -695017764 1323826909 1368445767
REM
REM Al.pp (e4fc5d4412d1ecf009fcd5f92cd21f1b)
REM 
CELL 1.54180   20.00000   20.00000   20.00000   90.00000   90.00000   90.00000
LATT -1
SFAC Al 
Al     1  0.5062679039283  0.4282409468476  0.5213647278250 1.0
Al     1  0.5297525131094  0.4955689928607  0.6068195636223 1.0
Al     1  0.5942929121765  0.4957459902186  0.5160779635119 1.0
Al     1  0.5707288243232  0.4304241313832  0.4291496090250 1.0
Al     1  0.4402215799587  0.4278379591327  0.6107121234539 1.0
Al     1  0.5292602875682  0.5829578661515  0.5378097635693 1.0
Al     1  0.3936252004057  0.5055245024962  0.4438696909609 1.0
Al     1  0.5039448234082  0.5148074482039  0.4523769609378 1.0
Al     1  0.4407293857856  0.5161313067950  0.5432639050653 1.0
Al     1  0.4417250197347  0.6034282072709  0.4722568373466 1.0
Al     1  0.5905188015274  0.5813911975505  0.4442505900075 1.0
Al     1  0.4589326480740  0.4179414510893  0.4220482646746 1.0
END
