TITL Al-578-8509-158 0.0000000000 8000.0000000000 -16.5048610030 0 0  7 (D5h) n - 1
REM
REM Run started: at Wed Oct 4 16:37:55 BST 2023 in /home/michal/install/eddp/airss/examples/1.3
REM pp3 from code version ## 0.9.3 July 2022 commit b0220bf5cbf550a3b7
REM
REM
REM
REM Total runtime: s
REM
REM
REM ./Al.cell (5b2acabb2af1bfc21170c061c07d0b41)
REM ## AIRSS Version 0.9.3 July 2022 commit b0220bf5cbf550a3b7
REM compiler GCC version 11.4.0
REM options -cpp -imultiarch x86_64-linux-gnu -mtune=generic -march=x86-64 -g -Og -fpre-include=/usr/include/finclude/math-vector-fortran.h
REM cmdline: airss.pl -pp3 -cluster -max 200 -seed Al 
REM seed 480740198 -365476851 -1058878799 -457931128 -1873243271 204782455 1042085167 -1217367814
REM
REM Al.pp (e4fc5d4412d1ecf009fcd5f92cd21f1b)
REM 
CELL 1.54180   20.00000   20.00000   20.00000   90.00000   90.00000   90.00000
LATT -1
SFAC Al 
Al     1  0.4380777908713  0.4784815008868  0.5696125225930 1.0
Al     1  0.5090597272972  0.5123416810726  0.4056129902009 1.0
Al     1  0.5125139132876  0.4443248514608  0.4939212862207 1.0
Al     1  0.5472632661853  0.5015491874027  0.5831089186736 1.0
Al     1  0.4874860839951  0.5556751195087  0.5060787424111 1.0
Al     1  0.4144667055413  0.4851516285986  0.4599140037759 1.0
Al     1  0.5911325128223  0.5224759310698  0.4817516361247 1.0
END
