TITL Al-578-8509-71 0.0000000000 8000.0000000000 -15.5325396958 0 0  7 (C2) n - 1
REM
REM Run started: at Wed Oct 4 16:35:04 BST 2023 in /home/michal/install/eddp/airss/examples/1.3
REM pp3 from code version ## 0.9.3 July 2022 commit b0220bf5cbf550a3b7
REM
REM
REM
REM Total runtime: s
REM
REM
REM ./Al.cell (5b2acabb2af1bfc21170c061c07d0b41)
REM ## AIRSS Version 0.9.3 July 2022 commit b0220bf5cbf550a3b7
REM compiler GCC version 11.4.0
REM options -cpp -imultiarch x86_64-linux-gnu -mtune=generic -march=x86-64 -g -Og -fpre-include=/usr/include/finclude/math-vector-fortran.h
REM cmdline: airss.pl -pp3 -cluster -max 200 -seed Al 
REM seed -517583407 -1734109324 -981593267 514495321 -626920863 329788103 -919195453 -1962156700
REM
REM Al.pp (e4fc5d4412d1ecf009fcd5f92cd21f1b)
REM 
CELL 1.54180   20.00000   20.00000   20.00000   90.00000   90.00000   90.00000
LATT -1
SFAC Al 
Al     1  0.5081503500869  0.4844804074933  0.4534315309529 1.0
Al     1  0.5573841804753  0.5722883561100  0.5018545511890 1.0
Al     1  0.5334704290421  0.4821962619856  0.5632600541117 1.0
Al     1  0.5361402129005  0.3884070051659  0.5027276220864 1.0
Al     1  0.4377402292637  0.4369954960644  0.5260028231451 1.0
Al     1  0.4763649780249  0.5877810415647  0.4258216705117 1.0
Al     1  0.4507495202067  0.5478514316161  0.5269018480032 1.0
END
