TITL Al-578-8509-104 0.0000000000 8000.0000000000 -27.1138067513 0 0  10 (C1) n - 1
REM
REM Run started: at Wed Oct 4 16:36:09 BST 2023 in /home/michal/install/eddp/airss/examples/1.3
REM pp3 from code version ## 0.9.3 July 2022 commit b0220bf5cbf550a3b7
REM
REM
REM
REM Total runtime: s
REM
REM
REM ./Al.cell (5b2acabb2af1bfc21170c061c07d0b41)
REM ## AIRSS Version 0.9.3 July 2022 commit b0220bf5cbf550a3b7
REM compiler GCC version 11.4.0
REM options -cpp -imultiarch x86_64-linux-gnu -mtune=generic -march=x86-64 -g -Og -fpre-include=/usr/include/finclude/math-vector-fortran.h
REM cmdline: airss.pl -pp3 -cluster -max 200 -seed Al 
REM seed -2028370241 502081273 1614612288 32143715 -1298997005 287235444 1385110922 1057737090
REM
REM Al.pp (e4fc5d4412d1ecf009fcd5f92cd21f1b)
REM 
CELL 1.54180   20.00000   20.00000   20.00000   90.00000   90.00000   90.00000
LATT -1
SFAC Al 
Al     1  0.4566401173813  0.5300134313374  0.3830728813412 1.0
Al     1  0.5754023603769  0.4576813826103  0.5139634375035 1.0
Al     1  0.5543466234705  0.5320148156876  0.4361132636773 1.0
Al     1  0.4939753428207  0.3957732957874  0.5552811852588 1.0
Al     1  0.3904479685403  0.5074332368707  0.4697508529428 1.0
Al     1  0.5482283496119  0.4764845509976  0.6189245358839 1.0
Al     1  0.4691221989150  0.5873756735041  0.4784228146347 1.0
Al     1  0.5596207918831  0.5636443699095  0.5436206806477 1.0
Al     1  0.4832189133280  0.4473173574325  0.4534475864817 1.0
Al     1  0.4689974336722  0.5022617858628  0.5474028616285 1.0
END
