TITL Al-578-8509-8 0.0000000000 8000.0000000000 -51.4155009258 0 0  15 (Cs) n - 1
REM
REM Run started: at Wed Oct 4 16:33:02 BST 2023 in /home/michal/install/eddp/airss/examples/1.3
REM pp3 from code version ## 0.9.3 July 2022 commit b0220bf5cbf550a3b7
REM
REM
REM
REM Total runtime: s
REM
REM
REM ./Al.cell (5b2acabb2af1bfc21170c061c07d0b41)
REM ## AIRSS Version 0.9.3 July 2022 commit b0220bf5cbf550a3b7
REM compiler GCC version 11.4.0
REM options -cpp -imultiarch x86_64-linux-gnu -mtune=generic -march=x86-64 -g -Og -fpre-include=/usr/include/finclude/math-vector-fortran.h
REM cmdline: airss.pl -pp3 -cluster -max 200 -seed Al 
REM seed 1057589856 1893181176 1425617232 -2012626115 543815291 -1371721345 1841532439 835407293
REM
REM Al.pp (e4fc5d4412d1ecf009fcd5f92cd21f1b)
REM 
CELL 1.54180   20.00000   20.00000   20.00000   90.00000   90.00000   90.00000
LATT -1
SFAC Al 
Al     1  0.4332936461319  0.5694953335085  0.5171139953237 1.0
Al     1  0.5399150710037  0.4657481435737  0.4086182157008 1.0
Al     1  0.3901271050432  0.4645495632189  0.5155105123746 1.0
Al     1  0.6157485953376  0.6105897988354  0.5010091123026 1.0
Al     1  0.6026232949534  0.5000141460634  0.4968847432020 1.0
Al     1  0.4527868230967  0.4991156634934  0.6039125425043 1.0
Al     1  0.4963771286680  0.4824958191910  0.5062141533905 1.0
Al     1  0.4317689202273  0.6190179235485  0.4174887281441 1.0
Al     1  0.4670375781824  0.3945832452160  0.5619723302448 1.0
Al     1  0.4561663534302  0.3999649336418  0.4489464111915 1.0
Al     1  0.5595076338641  0.3952308586837  0.4958597484533 1.0
Al     1  0.5257717144711  0.5698461785937  0.4502780277452 1.0
Al     1  0.5576641263821  0.4568746776197  0.5915664749843 1.0
Al     1  0.5361270558097  0.5647845263695  0.5637967867003 1.0
Al     1  0.4350850533985  0.5076890884430  0.4208282177382 1.0
END
