TITL Al-578-8509-125 0.0000000000 8000.0000000000 -47.8429465585 0 0  14 (C3v) n - 1
REM
REM Run started: at Wed Oct 4 16:36:50 BST 2023 in /home/michal/install/eddp/airss/examples/1.3
REM pp3 from code version ## 0.9.3 July 2022 commit b0220bf5cbf550a3b7
REM
REM
REM
REM Total runtime: s
REM
REM
REM ./Al.cell (5b2acabb2af1bfc21170c061c07d0b41)
REM ## AIRSS Version 0.9.3 July 2022 commit b0220bf5cbf550a3b7
REM compiler GCC version 11.4.0
REM options -cpp -imultiarch x86_64-linux-gnu -mtune=generic -march=x86-64 -g -Og -fpre-include=/usr/include/finclude/math-vector-fortran.h
REM cmdline: airss.pl -pp3 -cluster -max 200 -seed Al 
REM seed -2051310651 -1481263156 1750662675 248941886 -88819060 -1924961243 1130312210 -1019361552
REM
REM Al.pp (e4fc5d4412d1ecf009fcd5f92cd21f1b)
REM 
CELL 1.54180   20.00000   20.00000   20.00000   90.00000   90.00000   90.00000
LATT -1
SFAC Al 
Al     1  0.4488632053579  0.5405785991927  0.4262254578466 1.0
Al     1  0.3875256040789  0.4543719587560  0.3916849760049 1.0
Al     1  0.5896966343608  0.4364440302426  0.4830028959800 1.0
Al     1  0.4275113159569  0.5704952347792  0.5335257367936 1.0
Al     1  0.4910818176865  0.4342717236135  0.4271677324688 1.0
Al     1  0.5604288598528  0.5232488484036  0.4154068255742 1.0
Al     1  0.5085659772610  0.5034749964421  0.5082492161692 1.0
Al     1  0.4954183083002  0.3995048404060  0.5350413557730 1.0
Al     1  0.4567238002574  0.4837100739799  0.6011709435861 1.0
Al     1  0.5685895879769  0.4668297591503  0.5904506696204 1.0
Al     1  0.5217613934836  0.6075055543610  0.4814866504291 1.0
Al     1  0.4084453267691  0.4636453911296  0.5006037517558 1.0
Al     1  0.5265969215628  0.5725676745703  0.5895134342233 1.0
Al     1  0.6087911470952  0.5433512149732  0.5164704537751 1.0
END
