TITL Al-578-8509-80 0.0000000000 8000.0000000000 -35.2410198314 0 0  12 (Cs) n - 1
REM
REM Run started: at Wed Oct 4 16:35:22 BST 2023 in /home/michal/install/eddp/airss/examples/1.3
REM pp3 from code version ## 0.9.3 July 2022 commit b0220bf5cbf550a3b7
REM
REM
REM
REM Total runtime: s
REM
REM
REM ./Al.cell (5b2acabb2af1bfc21170c061c07d0b41)
REM ## AIRSS Version 0.9.3 July 2022 commit b0220bf5cbf550a3b7
REM compiler GCC version 11.4.0
REM options -cpp -imultiarch x86_64-linux-gnu -mtune=generic -march=x86-64 -g -Og -fpre-include=/usr/include/finclude/math-vector-fortran.h
REM cmdline: airss.pl -pp3 -cluster -max 200 -seed Al 
REM seed 453867366 -943762443 1310649086 -1477232412 378117830 1292756165 -208769417 1761927637
REM
REM Al.pp (e4fc5d4412d1ecf009fcd5f92cd21f1b)
REM 
CELL 1.54180   20.00000   20.00000   20.00000   90.00000   90.00000   90.00000
LATT -1
SFAC Al 
Al     1  0.4873096324049  0.5576496344119  0.3796909499226 1.0
Al     1  0.5226448686981  0.4535886151902  0.4062057514710 1.0
Al     1  0.4102314016693  0.4386570879658  0.5491340064710 1.0
Al     1  0.5395606389250  0.4767090461335  0.6180291010369 1.0
Al     1  0.5417878792878  0.5391852413428  0.4743072224538 1.0
Al     1  0.5668875519910  0.5771294551002  0.5749365274892 1.0
Al     1  0.6153685977867  0.4839488767443  0.5357557582035 1.0
Al     1  0.4363642951487  0.4997385863899  0.4590366015778 1.0
Al     1  0.5151497153737  0.4412958333642  0.5163136883445 1.0
Al     1  0.4564532507417  0.6085122431996  0.4762454783978 1.0
Al     1  0.4415342628208  0.3894351951853  0.4518754107067 1.0
Al     1  0.4667079051524  0.5341501849724  0.5584696039253 1.0
END
