TITL Al-578-8509-16 0.0000000000 8000.0000000000 -24.1124731635 0 0  9 (C2v) n - 1
REM
REM Run started: at Wed Oct 4 16:33:17 BST 2023 in /home/michal/install/eddp/airss/examples/1.3
REM pp3 from code version ## 0.9.3 July 2022 commit b0220bf5cbf550a3b7
REM
REM
REM
REM Total runtime: s
REM
REM
REM ./Al.cell (5b2acabb2af1bfc21170c061c07d0b41)
REM ## AIRSS Version 0.9.3 July 2022 commit b0220bf5cbf550a3b7
REM compiler GCC version 11.4.0
REM options -cpp -imultiarch x86_64-linux-gnu -mtune=generic -march=x86-64 -g -Og -fpre-include=/usr/include/finclude/math-vector-fortran.h
REM cmdline: airss.pl -pp3 -cluster -max 200 -seed Al 
REM seed 243580507 1732704602 -1655001388 -1725747803 858584130 1325053246 -641113442 1527109501
REM
REM Al.pp (e4fc5d4412d1ecf009fcd5f92cd21f1b)
REM 
CELL 1.54180   20.00000   20.00000   20.00000   90.00000   90.00000   90.00000
LATT -1
SFAC Al 
Al     1  0.4748523800803  0.4147560523891  0.4286716187778 1.0
Al     1  0.5552652971997  0.4421400220050  0.5005004741979 1.0
Al     1  0.4668051141357  0.5884380383436  0.5637455295299 1.0
Al     1  0.5095706098254  0.4879604954877  0.5918529868866 1.0
Al     1  0.4584992302576  0.5022720336378  0.4946060971214 1.0
Al     1  0.4820104217880  0.6019989953971  0.4524684026039 1.0
Al     1  0.5339008405054  0.5096595807510  0.4137971341620 1.0
Al     1  0.5594490279470  0.5515797351781  0.5144092168503 1.0
Al     1  0.4596470782609  0.4011950468105  0.5399487398703 1.0
END
