TITL Al-578-8509-159 0.0000000000 8000.0000000000 -36.3051846464 0 0  12 (Cs) n - 1
REM
REM Run started: at Wed Oct 4 16:37:58 BST 2023 in /home/michal/install/eddp/airss/examples/1.3
REM pp3 from code version ## 0.9.3 July 2022 commit b0220bf5cbf550a3b7
REM
REM
REM
REM Total runtime: s
REM
REM
REM ./Al.cell (5b2acabb2af1bfc21170c061c07d0b41)
REM ## AIRSS Version 0.9.3 July 2022 commit b0220bf5cbf550a3b7
REM compiler GCC version 11.4.0
REM options -cpp -imultiarch x86_64-linux-gnu -mtune=generic -march=x86-64 -g -Og -fpre-include=/usr/include/finclude/math-vector-fortran.h
REM cmdline: airss.pl -pp3 -cluster -max 200 -seed Al 
REM seed 669578870 -832704343 -1795085632 1830305156 -245309680 -1908282068 142241606 773978690
REM
REM Al.pp (e4fc5d4412d1ecf009fcd5f92cd21f1b)
REM 
CELL 1.54180   20.00000   20.00000   20.00000   90.00000   90.00000   90.00000
LATT -1
SFAC Al 
Al     1  0.5396044944142  0.5441336291708  0.5795995089828 1.0
Al     1  0.4347575919309  0.5857218055598  0.5802649670988 1.0
Al     1  0.4527514559200  0.4811205646722  0.5489901746852 1.0
Al     1  0.4871495131598  0.3864915610745  0.5018761470141 1.0
Al     1  0.4866173959561  0.5675354639075  0.4842278551240 1.0
Al     1  0.3794334910308  0.5410097155636  0.4916734633430 1.0
Al     1  0.5965758824283  0.5751716400633  0.4855192150016 1.0
Al     1  0.5386941138585  0.4130694470992  0.4042393439819 1.0
Al     1  0.5505348865930  0.4757502386998  0.4940686472610 1.0
Al     1  0.4519477284078  0.4729051025352  0.4387183993029 1.0
Al     1  0.5419624258793  0.5263562668320  0.3970567114453 1.0
Al     1  0.5399710204213  0.4307343648219  0.5937654667595 1.0
END
