TITL Al-578-8509-7 0.0000000000 8000.0000000000 -48.4839476119 0 0  15 (C1) n - 1
REM
REM Run started: at Wed Oct 4 16:33:00 BST 2023 in /home/michal/install/eddp/airss/examples/1.3
REM pp3 from code version ## 0.9.3 July 2022 commit b0220bf5cbf550a3b7
REM
REM
REM
REM Total runtime: s
REM
REM
REM ./Al.cell (5b2acabb2af1bfc21170c061c07d0b41)
REM ## AIRSS Version 0.9.3 July 2022 commit b0220bf5cbf550a3b7
REM compiler GCC version 11.4.0
REM options -cpp -imultiarch x86_64-linux-gnu -mtune=generic -march=x86-64 -g -Og -fpre-include=/usr/include/finclude/math-vector-fortran.h
REM cmdline: airss.pl -pp3 -cluster -max 200 -seed Al 
REM seed -459479658 -1176589858 2043731987 -222440360 182446691 -2049859280 -599512567 705485590
REM
REM Al.pp (e4fc5d4412d1ecf009fcd5f92cd21f1b)
REM 
CELL 1.54180   20.00000   20.00000   20.00000   90.00000   90.00000   90.00000
LATT -1
SFAC Al 
Al     1  0.6005772078429  0.5853592971330  0.4683636444356 1.0
Al     1  0.4633085350565  0.3583732057348  0.5275187617358 1.0
Al     1  0.5131165774273  0.6160095284343  0.5306684793075 1.0
Al     1  0.4158421598369  0.5630145681595  0.5214263698954 1.0
Al     1  0.4056936477465  0.4780514454667  0.4496617020565 1.0
Al     1  0.5042343543482  0.5313975130532  0.4614328868019 1.0
Al     1  0.5660022245034  0.5185997899641  0.5513331130668 1.0
Al     1  0.4672674818341  0.4669483434291  0.5408243077684 1.0
Al     1  0.5627986791294  0.4089860543614  0.5344457512748 1.0
Al     1  0.4787626390561  0.5496468656515  0.6130055836257 1.0
Al     1  0.5273286008268  0.4499942654290  0.6314880314174 1.0
Al     1  0.5007474318505  0.4217683199032  0.4435700046751 1.0
Al     1  0.5978099501432  0.4749119654102  0.4522348947745 1.0
Al     1  0.4215698902766  0.5823652183344  0.4112644899441 1.0
Al     1  0.4749404201216  0.4945735195355  0.3627619792205 1.0
END
