TITL Al-578-8509-127 0.0000000000 8000.0000000000 -36.1500228606 0 0  12 (C1) n - 1
REM
REM Run started: at Wed Oct 4 16:36:55 BST 2023 in /home/michal/install/eddp/airss/examples/1.3
REM pp3 from code version ## 0.9.3 July 2022 commit b0220bf5cbf550a3b7
REM
REM
REM
REM Total runtime: s
REM
REM
REM ./Al.cell (5b2acabb2af1bfc21170c061c07d0b41)
REM ## AIRSS Version 0.9.3 July 2022 commit b0220bf5cbf550a3b7
REM compiler GCC version 11.4.0
REM options -cpp -imultiarch x86_64-linux-gnu -mtune=generic -march=x86-64 -g -Og -fpre-include=/usr/include/finclude/math-vector-fortran.h
REM cmdline: airss.pl -pp3 -cluster -max 200 -seed Al 
REM seed 1626327747 -1486570156 -1307456130 -278252571 -1183341583 45378370 248049088 -198566447
REM
REM Al.pp (e4fc5d4412d1ecf009fcd5f92cd21f1b)
REM 
CELL 1.54180   20.00000   20.00000   20.00000   90.00000   90.00000   90.00000
LATT -1
SFAC Al 
Al     1  0.5570430661442  0.5368703444362  0.3859173643124 1.0
Al     1  0.5599822564555  0.4162460380018  0.5328193916906 1.0
Al     1  0.5693176968774  0.5181019649379  0.5837840001694 1.0
Al     1  0.4589240136495  0.4862296137420  0.3961922100548 1.0
Al     1  0.4885548946049  0.5425637755995  0.6571946584060 1.0
Al     1  0.4778482461586  0.5800027338568  0.5526654842194 1.0
Al     1  0.5224506443855  0.5069612295541  0.4855296466662 1.0
Al     1  0.4699867519643  0.4688112926547  0.5760617101810 1.0
Al     1  0.4706538599000  0.5905167299239  0.4384104891290 1.0
Al     1  0.4610866740497  0.4135298069731  0.4802612166750 1.0
Al     1  0.5530723091813  0.4270905523551  0.4180698167946 1.0
Al     1  0.4110795866291  0.5130759179648  0.4930940117016 1.0
END
