TITL Al-578-8509-39 0.0000000000 8000.0000000000 -35.1704440091 0 0  12 (C1) n - 1
REM
REM Run started: at Wed Oct 4 16:34:01 BST 2023 in /home/michal/install/eddp/airss/examples/1.3
REM pp3 from code version ## 0.9.3 July 2022 commit b0220bf5cbf550a3b7
REM
REM
REM
REM Total runtime: s
REM
REM
REM ./Al.cell (5b2acabb2af1bfc21170c061c07d0b41)
REM ## AIRSS Version 0.9.3 July 2022 commit b0220bf5cbf550a3b7
REM compiler GCC version 11.4.0
REM options -cpp -imultiarch x86_64-linux-gnu -mtune=generic -march=x86-64 -g -Og -fpre-include=/usr/include/finclude/math-vector-fortran.h
REM cmdline: airss.pl -pp3 -cluster -max 200 -seed Al 
REM seed 475248921 -1986557936 -741776384 74448803 1625075155 1682387126 2146511613 -1001985227
REM
REM Al.pp (e4fc5d4412d1ecf009fcd5f92cd21f1b)
REM 
CELL 1.54180   20.00000   20.00000   20.00000   90.00000   90.00000   90.00000
LATT -1
SFAC Al 
Al     1  0.4604307463901  0.5069782053327  0.4375499321037 1.0
Al     1  0.5241625596179  0.5971976419646  0.4561546010154 1.0
Al     1  0.5708082052261  0.4959470894339  0.4365844936765 1.0
Al     1  0.5072306563916  0.4245694681715  0.3788713414266 1.0
Al     1  0.5178560134664  0.6216622659901  0.5672410242146 1.0
Al     1  0.5964125797334  0.3876292570199  0.4366799680352 1.0
Al     1  0.4540050962264  0.5405013186108  0.6154899197672 1.0
Al     1  0.5213046685379  0.5175354069264  0.5318763790612 1.0
Al     1  0.4172941828740  0.4728218920078  0.5338860754890 1.0
Al     1  0.4294853664062  0.5812263771737  0.5139079895030 1.0
Al     1  0.5039068975549  0.4179526774137  0.4900692342278 1.0
Al     1  0.4971031275752  0.4359785999548  0.6016890414799 1.0
END
