TITL Al-578-8509-5 0.0000000000 8000.0000000000 -37.9659852484 0 0  12 (C5v) n - 1
REM
REM Run started: at Wed Oct 4 16:32:56 BST 2023 in /home/michal/install/eddp/airss/examples/1.3
REM pp3 from code version ## 0.9.3 July 2022 commit b0220bf5cbf550a3b7
REM
REM
REM
REM Total runtime: s
REM
REM
REM ./Al.cell (5b2acabb2af1bfc21170c061c07d0b41)
REM ## AIRSS Version 0.9.3 July 2022 commit b0220bf5cbf550a3b7
REM compiler GCC version 11.4.0
REM options -cpp -imultiarch x86_64-linux-gnu -mtune=generic -march=x86-64 -g -Og -fpre-include=/usr/include/finclude/math-vector-fortran.h
REM cmdline: airss.pl -pp3 -cluster -max 200 -seed Al 
REM seed -939106870 1685452174 -1396433961 1957616673 -1763985852 -897696461 -1889631331 -1494242518
REM
REM Al.pp (e4fc5d4412d1ecf009fcd5f92cd21f1b)
REM 
CELL 1.54180   20.00000   20.00000   20.00000   90.00000   90.00000   90.00000
LATT -1
SFAC Al 
Al     1  0.4443561768322  0.4905120554445  0.4126185500844 1.0
Al     1  0.5303046388192  0.4026582108032  0.5502633172406 1.0
Al     1  0.4615731982470  0.4807334280416  0.5947309615016 1.0
Al     1  0.5114340236461  0.4957859640968  0.4986927445907 1.0
Al     1  0.4298385066585  0.4232352044715  0.5025111694555 1.0
Al     1  0.5193997436040  0.4088518443377  0.4349165358571 1.0
Al     1  0.5869007533744  0.5731441628574  0.4957118524384 1.0
Al     1  0.5543780901047  0.5142179205203  0.4012018852634 1.0
Al     1  0.4957038730776  0.5835461542648  0.5618333148320 1.0
Al     1  0.4850631278290  0.5895896980638  0.4492816475670 1.0
Al     1  0.5720227183753  0.5041963833245  0.5878368405747 1.0
Al     1  0.4090252494319  0.5335289737739  0.5104011805944 1.0
END
