TITL Al-578-8509-195 0.0000000000 8000.0000000000 -15.9345205659 0 0  7 (C3v) n - 1
REM
REM Run started: at Wed Oct 4 16:39:10 BST 2023 in /home/michal/install/eddp/airss/examples/1.3
REM pp3 from code version ## 0.9.3 July 2022 commit b0220bf5cbf550a3b7
REM
REM
REM
REM Total runtime: s
REM
REM
REM ./Al.cell (5b2acabb2af1bfc21170c061c07d0b41)
REM ## AIRSS Version 0.9.3 July 2022 commit b0220bf5cbf550a3b7
REM compiler GCC version 11.4.0
REM options -cpp -imultiarch x86_64-linux-gnu -mtune=generic -march=x86-64 -g -Og -fpre-include=/usr/include/finclude/math-vector-fortran.h
REM cmdline: airss.pl -pp3 -cluster -max 200 -seed Al 
REM seed -2118481161 -1141186348 666495355 -195768660 1346049285 1927562524 1238408191 -2029901308
REM
REM Al.pp (e4fc5d4412d1ecf009fcd5f92cd21f1b)
REM 
CELL 1.54180   20.00000   20.00000   20.00000   90.00000   90.00000   90.00000
LATT -1
SFAC Al 
Al     1  0.5661244378659  0.4782290922792  0.5022141338894 1.0
Al     1  0.5015244571247  0.5696334989266  0.4995868683502 1.0
Al     1  0.4740122035765  0.4798682042601  0.4385942802731 1.0
Al     1  0.4775459922141  0.4165682086310  0.5303605550251 1.0
Al     1  0.5050048722122  0.5061595620831  0.5912350024271 1.0
Al     1  0.5627168613039  0.5417459224822  0.4102706999424 1.0
Al     1  0.4130711757026  0.5077955113378  0.5277384600929 1.0
END
