TITL Al-578-8509-134 0.0000000000 8000.0000000000 -41.4700841506 0 0  13 (Cs) n - 1
REM
REM Run started: at Wed Oct 4 16:37:09 BST 2023 in /home/michal/install/eddp/airss/examples/1.3
REM pp3 from code version ## 0.9.3 July 2022 commit b0220bf5cbf550a3b7
REM
REM
REM
REM Total runtime: s
REM
REM
REM ./Al.cell (5b2acabb2af1bfc21170c061c07d0b41)
REM ## AIRSS Version 0.9.3 July 2022 commit b0220bf5cbf550a3b7
REM compiler GCC version 11.4.0
REM options -cpp -imultiarch x86_64-linux-gnu -mtune=generic -march=x86-64 -g -Og -fpre-include=/usr/include/finclude/math-vector-fortran.h
REM cmdline: airss.pl -pp3 -cluster -max 200 -seed Al 
REM seed -1501122140 -1134045488 -572198500 -402637811 275907926 1489981964 -737709755 172546766
REM
REM Al.pp (e4fc5d4412d1ecf009fcd5f92cd21f1b)
REM 
CELL 1.54180   20.00000   20.00000   20.00000   90.00000   90.00000   90.00000
LATT -1
SFAC Al 
Al     1  0.4878096412655  0.4222454399671  0.5523008269456 1.0
Al     1  0.5230534470933  0.6009347067673  0.5324850313326 1.0
Al     1  0.5180802097866  0.5026023739967  0.4850403272385 1.0
Al     1  0.4386012853889  0.5738985427943  0.4619428946425 1.0
Al     1  0.6162378041622  0.5444496943688  0.5024550362816 1.0
Al     1  0.5438046916041  0.5867972115576  0.4222798595412 1.0
Al     1  0.5070647405201  0.4036835075767  0.4427447427624 1.0
Al     1  0.3798589582505  0.4369376494288  0.5752301752518 1.0
Al     1  0.4167859107774  0.4637689621336  0.4736850437922 1.0
Al     1  0.4767406242298  0.4998971414967  0.3851831446639 1.0
Al     1  0.5938329881700  0.4314398175029  0.5147917843463 1.0
Al     1  0.4452100873010  0.5262816987049  0.5633806100733 1.0
Al     1  0.5529195114506  0.5070633537047  0.5884804231282 1.0
END
