TITL Al-578-8509-187 0.0000000000 8000.0000000000 -27.4786380311 0 0  10 (C1) n - 1
REM
REM Run started: at Wed Oct 4 16:38:54 BST 2023 in /home/michal/install/eddp/airss/examples/1.3
REM pp3 from code version ## 0.9.3 July 2022 commit b0220bf5cbf550a3b7
REM
REM
REM
REM Total runtime: s
REM
REM
REM ./Al.cell (5b2acabb2af1bfc21170c061c07d0b41)
REM ## AIRSS Version 0.9.3 July 2022 commit b0220bf5cbf550a3b7
REM compiler GCC version 11.4.0
REM options -cpp -imultiarch x86_64-linux-gnu -mtune=generic -march=x86-64 -g -Og -fpre-include=/usr/include/finclude/math-vector-fortran.h
REM cmdline: airss.pl -pp3 -cluster -max 200 -seed Al 
REM seed 316522833 1755992602 -1159871825 456198028 -1505823892 974816447 226721254 -1348890704
REM
REM Al.pp (e4fc5d4412d1ecf009fcd5f92cd21f1b)
REM 
CELL 1.54180   20.00000   20.00000   20.00000   90.00000   90.00000   90.00000
LATT -1
SFAC Al 
Al     1  0.5277039451665  0.5561464718211  0.5821349111607 1.0
Al     1  0.5175306543019  0.4448158446587  0.5979727904487 1.0
Al     1  0.4986300501978  0.4786969463257  0.4198260019699 1.0
Al     1  0.4546934342739  0.4974314448974  0.5233748725353 1.0
Al     1  0.4008095796678  0.4347673683535  0.4495508638003 1.0
Al     1  0.4958191915241  0.3979126781446  0.4975706583466 1.0
Al     1  0.4112562828554  0.5461923969697  0.4338301856627 1.0
Al     1  0.6145146671370  0.5836446941001  0.5171631722410 1.0
Al     1  0.5126159472732  0.5764630103779  0.4721527589622 1.0
Al     1  0.5664263476024  0.4839290443513  0.5064236848726 1.0
END
