TITL Al-578-8509-89 0.0000000000 8000.0000000000 -31.7942174114 0 0  11 (C1) n - 1
REM
REM Run started: at Wed Oct 4 16:35:39 BST 2023 in /home/michal/install/eddp/airss/examples/1.3
REM pp3 from code version ## 0.9.3 July 2022 commit b0220bf5cbf550a3b7
REM
REM
REM
REM Total runtime: s
REM
REM
REM ./Al.cell (5b2acabb2af1bfc21170c061c07d0b41)
REM ## AIRSS Version 0.9.3 July 2022 commit b0220bf5cbf550a3b7
REM compiler GCC version 11.4.0
REM options -cpp -imultiarch x86_64-linux-gnu -mtune=generic -march=x86-64 -g -Og -fpre-include=/usr/include/finclude/math-vector-fortran.h
REM cmdline: airss.pl -pp3 -cluster -max 200 -seed Al 
REM seed 296514490 -779665166 1839760523 -468174319 -529484688 -1579248203 59726110 -477671758
REM
REM Al.pp (e4fc5d4412d1ecf009fcd5f92cd21f1b)
REM 
CELL 1.54180   20.00000   20.00000   20.00000   90.00000   90.00000   90.00000
LATT -1
SFAC Al 
Al     1  0.4687625246302  0.4750900051740  0.5074444204235 1.0
Al     1  0.4606162891065  0.4349101396705  0.4052877792857 1.0
Al     1  0.5566648084727  0.4805936887352  0.4365903632923 1.0
Al     1  0.4863549634361  0.6492185024891  0.4646098773047 1.0
Al     1  0.5251140370436  0.3838584501548  0.4840967461204 1.0
Al     1  0.4915596542213  0.4069092799145  0.5907018211626 1.0
Al     1  0.4972981209577  0.5201323203616  0.6033814762778 1.0
Al     1  0.5749103314488  0.4637713171835  0.5449128445690 1.0
Al     1  0.5400301356243  0.5625607087277  0.5091113185322 1.0
Al     1  0.4670920904859  0.5468093997090  0.4246555763738 1.0
Al     1  0.4315970445728  0.5761462878801  0.5292076766579 1.0
END
