TITL Al-578-8509-57 0.0000000000 8000.0000000000 -15.5325396956 0 0  7 (C2) n - 1
REM
REM Run started: at Wed Oct 4 16:34:36 BST 2023 in /home/michal/install/eddp/airss/examples/1.3
REM pp3 from code version ## 0.9.3 July 2022 commit b0220bf5cbf550a3b7
REM
REM
REM
REM Total runtime: s
REM
REM
REM ./Al.cell (5b2acabb2af1bfc21170c061c07d0b41)
REM ## AIRSS Version 0.9.3 July 2022 commit b0220bf5cbf550a3b7
REM compiler GCC version 11.4.0
REM options -cpp -imultiarch x86_64-linux-gnu -mtune=generic -march=x86-64 -g -Og -fpre-include=/usr/include/finclude/math-vector-fortran.h
REM cmdline: airss.pl -pp3 -cluster -max 200 -seed Al 
REM seed -10298848 -464203017 1468178513 537494650 -2008183711 -129495455 -398769131 1843925881
REM
REM Al.pp (e4fc5d4412d1ecf009fcd5f92cd21f1b)
REM 
CELL 1.54180   20.00000   20.00000   20.00000   90.00000   90.00000   90.00000
LATT -1
SFAC Al 
Al     1  0.4544393675688  0.5378208613640  0.5439646131598 1.0
Al     1  0.5070827812110  0.4369551058418  0.4012997427855 1.0
Al     1  0.5346742257671  0.5005493530834  0.6120889611322 1.0
Al     1  0.5272156795030  0.4592682989285  0.5087261274248 1.0
Al     1  0.4928683195590  0.5410404872399  0.4391403797325 1.0
Al     1  0.5616006971788  0.5644635544315  0.5239125421055 1.0
Al     1  0.4221189292123  0.4599023391109  0.4708676336596 1.0
END
