TITL Al-578-8509-1 0.0000000000 8000.0000000000 -53.8435667699 0 0  16 (C1) n - 1
REM
REM Run started: at Wed Oct 4 16:32:48 BST 2023 in /home/michal/install/eddp/airss/examples/1.3
REM pp3 from code version ## 0.9.3 July 2022 commit b0220bf5cbf550a3b7
REM
REM
REM
REM Total runtime: s
REM
REM
REM ./Al.cell (5b2acabb2af1bfc21170c061c07d0b41)
REM ## AIRSS Version 0.9.3 July 2022 commit b0220bf5cbf550a3b7
REM compiler GCC version 11.4.0
REM options -cpp -imultiarch x86_64-linux-gnu -mtune=generic -march=x86-64 -g -Og -fpre-include=/usr/include/finclude/math-vector-fortran.h
REM cmdline: airss.pl -pp3 -cluster -max 200 -seed Al 
REM seed 1363508909 -803519751 1477014395 814167116 -1048865823 935522377 80081191 939161254
REM
REM Al.pp (e4fc5d4412d1ecf009fcd5f92cd21f1b)
REM 
CELL 1.54180   20.00000   20.00000   20.00000   90.00000   90.00000   90.00000
LATT -1
SFAC Al 
Al     1  0.5227395906834  0.5451473731986  0.4208422766691 1.0
Al     1  0.5819173161340  0.5090123205725  0.6273535352491 1.0
Al     1  0.4671334368299  0.4909698022854  0.4982576358917 1.0
Al     1  0.5563571999713  0.4421449341388  0.4591520645985 1.0
Al     1  0.4634324172703  0.3837865702500  0.4841000597288 1.0
Al     1  0.5639007435961  0.5331872700511  0.5222264048324 1.0
Al     1  0.6320309308312  0.4495787034337  0.5431929678218 1.0
Al     1  0.3718865060364  0.4525090420421  0.4649265577244 1.0
Al     1  0.5476133406941  0.6135687523610  0.5953244866479 1.0
Al     1  0.4113872076356  0.5516616026194  0.4270584849321 1.0
Al     1  0.4753481279453  0.5993812587989  0.5086823466603 1.0
Al     1  0.5627188648238  0.4679856824362  0.3514224368781 1.0
Al     1  0.4758162487905  0.5298386376042  0.5982738031183 1.0
Al     1  0.3806246251053  0.5440714165605  0.5355594881538 1.0
Al     1  0.5256208697365  0.4329027155403  0.5675578332550 1.0
Al     1  0.4614725739162  0.4542538181073  0.3960695178389 1.0
END
