TITL Al-578-8509-113 0.0000000000 8000.0000000000 -31.8804183934 0 0  11 (Cs) n - 1
REM
REM Run started: at Wed Oct 4 16:36:27 BST 2023 in /home/michal/install/eddp/airss/examples/1.3
REM pp3 from code version ## 0.9.3 July 2022 commit b0220bf5cbf550a3b7
REM
REM
REM
REM Total runtime: s
REM
REM
REM ./Al.cell (5b2acabb2af1bfc21170c061c07d0b41)
REM ## AIRSS Version 0.9.3 July 2022 commit b0220bf5cbf550a3b7
REM compiler GCC version 11.4.0
REM options -cpp -imultiarch x86_64-linux-gnu -mtune=generic -march=x86-64 -g -Og -fpre-include=/usr/include/finclude/math-vector-fortran.h
REM cmdline: airss.pl -pp3 -cluster -max 200 -seed Al 
REM seed 1975069229 468572162 1381942955 1244651929 1923485413 330325098 -1325171956 163434489
REM
REM Al.pp (e4fc5d4412d1ecf009fcd5f92cd21f1b)
REM 
CELL 1.54180   20.00000   20.00000   20.00000   90.00000   90.00000   90.00000
LATT -1
SFAC Al 
Al     1  0.4883584420543  0.5234351269593  0.5855074437464 1.0
Al     1  0.4891022552568  0.4288813648146  0.5278220855535 1.0
Al     1  0.4677326357270  0.5659267460708  0.4089648874097 1.0
Al     1  0.4795574519194  0.4532822475689  0.4182313758405 1.0
Al     1  0.5783160389925  0.5840718582404  0.5627692498317 1.0
Al     1  0.5359740755342  0.5212340332207  0.4829503001411 1.0
Al     1  0.4785319695943  0.6094474294399  0.5139371667050 1.0
Al     1  0.3939256154291  0.4083864778105  0.4737262679558 1.0
Al     1  0.5788122612658  0.4216350805947  0.4636341790499 1.0
Al     1  0.4241257060016  0.5132854411606  0.4958430299565 1.0
Al     1  0.5855634482249  0.4704142941197  0.5666141138101 1.0
END
