TITL Al-578-8509-19 0.0000000000 8000.0000000000 -43.6389148058 0 0  14 (C1) n - 1
REM
REM Run started: at Wed Oct 4 16:33:23 BST 2023 in /home/michal/install/eddp/airss/examples/1.3
REM pp3 from code version ## 0.9.3 July 2022 commit b0220bf5cbf550a3b7
REM
REM
REM
REM Total runtime: s
REM
REM
REM ./Al.cell (5b2acabb2af1bfc21170c061c07d0b41)
REM ## AIRSS Version 0.9.3 July 2022 commit b0220bf5cbf550a3b7
REM compiler GCC version 11.4.0
REM options -cpp -imultiarch x86_64-linux-gnu -mtune=generic -march=x86-64 -g -Og -fpre-include=/usr/include/finclude/math-vector-fortran.h
REM cmdline: airss.pl -pp3 -cluster -max 200 -seed Al 
REM seed 869356622 515417031 1355521011 -686756927 1511635077 565317018 -1972091612 -925793697
REM
REM Al.pp (e4fc5d4412d1ecf009fcd5f92cd21f1b)
REM 
CELL 1.54180   20.00000   20.00000   20.00000   90.00000   90.00000   90.00000
LATT -1
SFAC Al 
Al     1  0.5184456032893  0.5996188598779  0.4810191708670 1.0
Al     1  0.5340542794418  0.4777498568350  0.6163380895265 1.0
Al     1  0.4809121798751  0.3946496150396  0.4301212203174 1.0
Al     1  0.5174937194049  0.4988891996645  0.4351007721690 1.0
Al     1  0.5378022170964  0.4226529295008  0.5195023216807 1.0
Al     1  0.4096106286460  0.4789406149598  0.4441632986658 1.0
Al     1  0.5224286033819  0.5878974790381  0.5922683542220 1.0
Al     1  0.4719150765002  0.5110078976880  0.5325288157605 1.0
Al     1  0.4087503669928  0.5838188957468  0.4802187707382 1.0
Al     1  0.6153791629452  0.4502158766084  0.4453580973655 1.0
Al     1  0.5834364859522  0.5220197487939  0.5258106496963 1.0
Al     1  0.3629128378396  0.5012262672041  0.5428768011686 1.0
Al     1  0.6084431396979  0.5613028910392  0.4252616005572 1.0
Al     1  0.4284157989368  0.4100098680041  0.5294319372655 1.0
END
