TITL Al-578-8509-188 0.0000000000 8000.0000000000 -19.8207967002 0 0  8 (Cs) n - 1
REM
REM Run started: at Wed Oct 4 16:38:56 BST 2023 in /home/michal/install/eddp/airss/examples/1.3
REM pp3 from code version ## 0.9.3 July 2022 commit b0220bf5cbf550a3b7
REM
REM
REM
REM Total runtime: s
REM
REM
REM ./Al.cell (5b2acabb2af1bfc21170c061c07d0b41)
REM ## AIRSS Version 0.9.3 July 2022 commit b0220bf5cbf550a3b7
REM compiler GCC version 11.4.0
REM options -cpp -imultiarch x86_64-linux-gnu -mtune=generic -march=x86-64 -g -Og -fpre-include=/usr/include/finclude/math-vector-fortran.h
REM cmdline: airss.pl -pp3 -cluster -max 200 -seed Al 
REM seed 1974110870 -1541680854 -206474509 -1478170946 78527992 -310783704 -1121504026 1531962292
REM
REM Al.pp (e4fc5d4412d1ecf009fcd5f92cd21f1b)
REM 
CELL 1.54180   20.00000   20.00000   20.00000   90.00000   90.00000   90.00000
LATT -1
SFAC Al 
Al     1  0.4428833847914  0.5624793986235  0.4839060553905 1.0
Al     1  0.4634565202789  0.5041997885971  0.5779225969263 1.0
Al     1  0.5542874313813  0.4249803575579  0.4416168744180 1.0
Al     1  0.4993476115384  0.5139536717056  0.3999496526458 1.0
Al     1  0.4532985775264  0.4517543459049  0.4803125336796 1.0
Al     1  0.5440835616748  0.5181732885120  0.5016188484226 1.0
Al     1  0.5326088080875  0.4197309135083  0.5519494298274 1.0
Al     1  0.5100340047211  0.6047282355907  0.5627239086898 1.0
END
