TITL Al-578-8509-178 0.0000000000 8000.0000000000 -32.7646232578 0 0  11 (C2v) n - 1
REM
REM Run started: at Wed Oct 4 16:38:36 BST 2023 in /home/michal/install/eddp/airss/examples/1.3
REM pp3 from code version ## 0.9.3 July 2022 commit b0220bf5cbf550a3b7
REM
REM
REM
REM Total runtime: s
REM
REM
REM ./Al.cell (5b2acabb2af1bfc21170c061c07d0b41)
REM ## AIRSS Version 0.9.3 July 2022 commit b0220bf5cbf550a3b7
REM compiler GCC version 11.4.0
REM options -cpp -imultiarch x86_64-linux-gnu -mtune=generic -march=x86-64 -g -Og -fpre-include=/usr/include/finclude/math-vector-fortran.h
REM cmdline: airss.pl -pp3 -cluster -max 200 -seed Al 
REM seed -1914241735 640678175 2046712841 1929821647 1314721806 -1573137819 -1599145365 -849189015
REM
REM Al.pp (e4fc5d4412d1ecf009fcd5f92cd21f1b)
REM 
CELL 1.54180   20.00000   20.00000   20.00000   90.00000   90.00000   90.00000
LATT -1
SFAC Al 
Al     1  0.5426560361611  0.4709192593104  0.4149028262161 1.0
Al     1  0.4753492670789  0.5576610135816  0.4329214865800 1.0
Al     1  0.4312226580747  0.4549713982747  0.4271245634065 1.0
Al     1  0.5577821130006  0.5209276235256  0.5910603381356 1.0
Al     1  0.5942223078533  0.4448639864975  0.5122842179450 1.0
Al     1  0.5076873021824  0.3820931456950  0.4712920200253 1.0
Al     1  0.4917666339939  0.4819529651548  0.5136170530713 1.0
Al     1  0.3947824640407  0.5310350854946  0.5059007245975 1.0
Al     1  0.5744587203431  0.5515153136136  0.4847015629853 1.0
Al     1  0.4447064698588  0.5135565546009  0.6074435215507 1.0
Al     1  0.4853661274125  0.5905036542515  0.5387516854866 1.0
END
