TITL Al-578-8509-17 0.0000000000 8000.0000000000 -15.5325396957 0 0  7 (C2) n - 1
REM
REM Run started: at Wed Oct 4 16:33:19 BST 2023 in /home/michal/install/eddp/airss/examples/1.3
REM pp3 from code version ## 0.9.3 July 2022 commit b0220bf5cbf550a3b7
REM
REM
REM
REM Total runtime: s
REM
REM
REM ./Al.cell (5b2acabb2af1bfc21170c061c07d0b41)
REM ## AIRSS Version 0.9.3 July 2022 commit b0220bf5cbf550a3b7
REM compiler GCC version 11.4.0
REM options -cpp -imultiarch x86_64-linux-gnu -mtune=generic -march=x86-64 -g -Og -fpre-include=/usr/include/finclude/math-vector-fortran.h
REM cmdline: airss.pl -pp3 -cluster -max 200 -seed Al 
REM seed -450455760 790896234 -2006944036 -2126094550 -377675846 -409388843 74649365 -596456221
REM
REM Al.pp (e4fc5d4412d1ecf009fcd5f92cd21f1b)
REM 
CELL 1.54180   20.00000   20.00000   20.00000   90.00000   90.00000   90.00000
LATT -1
SFAC Al 
Al     1  0.5087812130153  0.4822378846386  0.4098368172204 1.0
Al     1  0.5189393062278  0.5069196167216  0.5900855423683 1.0
Al     1  0.5014787760984  0.6082522649534  0.5452307608154 1.0
Al     1  0.5649416670468  0.5338586625163  0.4913254291639 1.0
Al     1  0.5247774436080  0.4310493156207  0.5084234616021 1.0
Al     1  0.4274213655858  0.4195572693705  0.4549683145002 1.0
Al     1  0.4536602284178  0.5181250861789  0.5001295743297 1.0
END
