TITL Al-578-8509-59 0.0000000000 8000.0000000000 -36.2414227697 0 0  12 (C1) n - 1
REM
REM Run started: at Wed Oct 4 16:34:41 BST 2023 in /home/michal/install/eddp/airss/examples/1.3
REM pp3 from code version ## 0.9.3 July 2022 commit b0220bf5cbf550a3b7
REM
REM
REM
REM Total runtime: s
REM
REM
REM ./Al.cell (5b2acabb2af1bfc21170c061c07d0b41)
REM ## AIRSS Version 0.9.3 July 2022 commit b0220bf5cbf550a3b7
REM compiler GCC version 11.4.0
REM options -cpp -imultiarch x86_64-linux-gnu -mtune=generic -march=x86-64 -g -Og -fpre-include=/usr/include/finclude/math-vector-fortran.h
REM cmdline: airss.pl -pp3 -cluster -max 200 -seed Al 
REM seed -1538105453 -2049805569 -328740460 -1793214516 67085610 10989609 -204541667 637348169
REM
REM Al.pp (e4fc5d4412d1ecf009fcd5f92cd21f1b)
REM 
CELL 1.54180   20.00000   20.00000   20.00000   90.00000   90.00000   90.00000
LATT -1
SFAC Al 
Al     1  0.5207412513271  0.5563480845699  0.4231815086737 1.0
Al     1  0.5342147034664  0.5674466785323  0.6095792784487 1.0
Al     1  0.4139784673919  0.5209569593319  0.4301815493158 1.0
Al     1  0.5744642886084  0.5233186271264  0.5147986569700 1.0
Al     1  0.4933736266812  0.4577127012623  0.4715622448819 1.0
Al     1  0.4015931962231  0.4695877353277  0.5315858274104 1.0
Al     1  0.4895810710164  0.4692314636671  0.3622369923207 1.0
Al     1  0.5830213815488  0.4129588059960  0.5176859808981 1.0
Al     1  0.5889078344668  0.4677339393294  0.4183202797758 1.0
Al     1  0.4690503378352  0.5561865223898  0.5204860285913 1.0
Al     1  0.4269863404593  0.5337545447092  0.6205237114924 1.0
Al     1  0.5040875009752  0.4647640377580  0.5798579412214 1.0
END
