TITL Al-578-8509-129 0.0000000000 8000.0000000000 -26.2113791551 0 0  10 (C1) n - 1
REM
REM Run started: at Wed Oct 4 16:36:59 BST 2023 in /home/michal/install/eddp/airss/examples/1.3
REM pp3 from code version ## 0.9.3 July 2022 commit b0220bf5cbf550a3b7
REM
REM
REM
REM Total runtime: s
REM
REM
REM ./Al.cell (5b2acabb2af1bfc21170c061c07d0b41)
REM ## AIRSS Version 0.9.3 July 2022 commit b0220bf5cbf550a3b7
REM compiler GCC version 11.4.0
REM options -cpp -imultiarch x86_64-linux-gnu -mtune=generic -march=x86-64 -g -Og -fpre-include=/usr/include/finclude/math-vector-fortran.h
REM cmdline: airss.pl -pp3 -cluster -max 200 -seed Al 
REM seed 311751808 88305481 1317376466 -2001888442 285531233 1020967818 -551281991 -1212192716
REM
REM Al.pp (e4fc5d4412d1ecf009fcd5f92cd21f1b)
REM 
CELL 1.54180   20.00000   20.00000   20.00000   90.00000   90.00000   90.00000
LATT -1
SFAC Al 
Al     1  0.5289374023275  0.5451839649441  0.5274167851868 1.0
Al     1  0.5568528916866  0.4211313512420  0.3968545092609 1.0
Al     1  0.4826754055125  0.4602146575280  0.4699815393325 1.0
Al     1  0.5898731367716  0.4566818298116  0.4977908606891 1.0
Al     1  0.4276052630633  0.5784658694752  0.5573164036598 1.0
Al     1  0.3814576432222  0.4950874031223  0.4993938999989 1.0
Al     1  0.4524193913862  0.5651117486071  0.4490083565869 1.0
Al     1  0.5663256645878  0.4746071042110  0.6049842987253 1.0
Al     1  0.5547964381608  0.5303106558190  0.4204146465121 1.0
Al     1  0.4590566632814  0.4732054152396  0.5768387000479 1.0
END
