TITL Al-578-8509-100 0.0000000000 8000.0000000000 -31.4991210536 0 0  11 (D5d) n - 1
REM
REM Run started: at Wed Oct 4 16:36:01 BST 2023 in /home/michal/install/eddp/airss/examples/1.3
REM pp3 from code version ## 0.9.3 July 2022 commit b0220bf5cbf550a3b7
REM
REM
REM
REM Total runtime: s
REM
REM
REM ./Al.cell (5b2acabb2af1bfc21170c061c07d0b41)
REM ## AIRSS Version 0.9.3 July 2022 commit b0220bf5cbf550a3b7
REM compiler GCC version 11.4.0
REM options -cpp -imultiarch x86_64-linux-gnu -mtune=generic -march=x86-64 -g -Og -fpre-include=/usr/include/finclude/math-vector-fortran.h
REM cmdline: airss.pl -pp3 -cluster -max 200 -seed Al 
REM seed 1014594164 1072300898 -644651664 -1168107079 -462393397 -1781215584 -326437715 -1846775115
REM
REM Al.pp (e4fc5d4412d1ecf009fcd5f92cd21f1b)
REM 
CELL 1.54180   20.00000   20.00000   20.00000   90.00000   90.00000   90.00000
LATT -1
SFAC Al 
Al     1  0.5564485588183  0.5902075894403  0.5220933041973 1.0
Al     1  0.4314633829955  0.5054328200732  0.4158265051613 1.0
Al     1  0.4999999743098  0.5000000378705  0.5000000864447 1.0
Al     1  0.5516177462321  0.4057071931029  0.5160131850232 1.0
Al     1  0.4435512844584  0.4097925844953  0.4779065494453 1.0
Al     1  0.5685362519286  0.4945671868699  0.5841737799004 1.0
Al     1  0.4679408908005  0.4395432123267  0.5844344200234 1.0
Al     1  0.5320592728064  0.5604560371898  0.4155653596670 1.0
Al     1  0.4483824306136  0.5942929466746  0.4839863046482 1.0
Al     1  0.6063186089309  0.4988226855975  0.4774847841153 1.0
Al     1  0.3936815981057  0.5011776063596  0.5225158213740 1.0
END
