TITL Al-10352-5214-177 0.0000000000 8000.0000000000 -169.3484474229 0 0  38 (C5) n - 1
REM
REM Run started: at Wed Oct 4 17:05:12 BST 2023 in /home/michal/install/eddp/airss/examples/1.4
REM pp3 from code version ## 0.9.3 July 2022 commit b0220bf5cbf550a3b7
REM
REM
REM
REM Total runtime: s
REM
REM
REM ./Al.cell (51dbbcdc706028a6152540e3738facae)
REM ## AIRSS Version 0.9.3 July 2022 commit b0220bf5cbf550a3b7
REM compiler GCC version 11.4.0
REM options -cpp -imultiarch x86_64-linux-gnu -mtune=generic -march=x86-64 -g -Og -fpre-include=/usr/include/finclude/math-vector-fortran.h
REM cmdline: airss.pl -pp3 -cluster -max 200 -seed Al 
REM seed -2057082954 171287219 -1388955670 -2100813862 -1587746672 302002513 1784724816 1286736854
REM
REM Al.pp (e4fc5d4412d1ecf009fcd5f92cd21f1b)
REM 
CELL 1.54180   20.00000   20.00000   20.00000   90.00000   90.00000   90.00000
LATT -1
SFAC Al 
Al     1  0.4628757170123  0.5173311198335  0.4068979733433 1.0
Al     1  0.4628756856031  0.4209397403320  0.4517028926099 1.0
Al     1  0.4628756940283  0.4337651677374  0.5572220199667 1.0
Al     1  0.4628757304441  0.5380831012293  0.5776315253065 1.0
Al     1  0.4628757447607  0.5897297094150  0.4847261495381 1.0
Al     1  0.6458650168339  0.6054064718999  0.4828207641056 1.0
Al     1  0.6458651157083  0.5203632864474  0.3913998942177 1.0
Al     1  0.6458652595959  0.4071374749098  0.4440300792655 1.0
Al     1  0.6458652495272  0.4222026864979  0.5679776878922 1.0
Al     1  0.6458650996705  0.5447394786796  0.5919520830205 1.0
Al     1  0.4691171482822  0.6230665381615  0.3811270214575 1.0
Al     1  0.4691171093859  0.4291041434034  0.3431788752502 1.0
Al     1  0.4691170979538  0.3330756370543  0.5159214353515 1.0
Al     1  0.4691171296863  0.4676891226243  0.6606303718411 1.0
Al     1  0.4691171607394  0.6469133712478  0.5773228560011 1.0
Al     1  0.3734758123889  0.5935283566244  0.5476455805398 1.0
Al     1  0.3734758031674  0.5783449198082  0.4227284420537 1.0
Al     1  0.3734757657056  0.4548497193305  0.3985672267676 1.0
Al     1  0.3734757518952  0.3937089220957  0.5085519194554 1.0
Al     1  0.3734757807265  0.4794170374870  0.6006874093826 1.0
Al     1  0.4099659074384  0.3672807347741  0.6190697689776 1.0
Al     1  0.4099659759475  0.5763589926767  0.6599739999254 1.0
Al     1  0.4099660024172  0.6798699646584  0.4737688452580 1.0
Al     1  0.4099659497868  0.5347649766449  0.3177835169970 1.0
Al     1  0.4099658909275  0.3415742236952  0.4075844403918 1.0
Al     1  0.5567260722131  0.4810070874354  0.5925583954799 1.0
Al     1  0.5567260725791  0.5862885565009  0.5436212888350 1.0
Al     1  0.5567260672206  0.5722803051384  0.4283702378535 1.0
Al     1  0.5567260634458  0.4583412879033  0.4060783996611 1.0
Al     1  0.5567260665747  0.4019314035017  0.5075522221949 1.0
Al     1  0.5313391137366  0.6708425093944  0.4748672725708 1.0
Al     1  0.5313390232964  0.5330199479864  0.3267085023079 1.0
Al     1  0.5313389117220  0.3495231095742  0.4120019607142 1.0
Al     1  0.5313389335096  0.3739383307539  0.6128749368516 1.0
Al     1  0.5313390579730  0.5725246223874  0.6517278797076 1.0
Al     1  0.6202748456549  0.4999700029214  0.4956361002991 1.0
Al     1  0.5161260206828  0.4999697523752  0.4956361101016 1.0
Al     1  0.4008554517581  0.4999697868593  0.4956361145068 1.0
END
