TITL Al-10352-5214-127 0.0000000000 8000.0000000000 -167.9921458242 0 0  38 (C3) n - 1
REM
REM Run started: at Wed Oct 4 17:03:29 BST 2023 in /home/michal/install/eddp/airss/examples/1.4
REM pp3 from code version ## 0.9.3 July 2022 commit b0220bf5cbf550a3b7
REM
REM
REM
REM Total runtime: s
REM
REM
REM ./Al.cell (51dbbcdc706028a6152540e3738facae)
REM ## AIRSS Version 0.9.3 July 2022 commit b0220bf5cbf550a3b7
REM compiler GCC version 11.4.0
REM options -cpp -imultiarch x86_64-linux-gnu -mtune=generic -march=x86-64 -g -Og -fpre-include=/usr/include/finclude/math-vector-fortran.h
REM cmdline: airss.pl -pp3 -cluster -max 200 -seed Al 
REM seed 1797346061 -485190512 -689400584 -1612125209 -712641062 -857175207 1513547336 778527003
REM
REM Al.pp (e4fc5d4412d1ecf009fcd5f92cd21f1b)
REM 
CELL 1.54180   20.00000   20.00000   20.00000   90.00000   90.00000   90.00000
LATT -1
SFAC Al 
Al     1  0.3459553714665  0.4236399525113  0.5336019191064 1.0
Al     1  0.6419480795026  0.4065286868607  0.5336019048203 1.0
Al     1  0.5087705162343  0.6714215241758  0.5336019179337 1.0
Al     1  0.5478498947340  0.4002477477151  0.3426839273014 1.0
Al     1  0.5612590523716  0.5930705904624  0.3426839316812 1.0
Al     1  0.3875649933064  0.5082718402472  0.3426839376013 1.0
Al     1  0.5819632170380  0.3355923476132  0.5949341576445 1.0
Al     1  0.6001956222244  0.6549412741828  0.5949341650988 1.0
Al     1  0.3145151365464  0.5110565369633  0.5949341747166 1.0
Al     1  0.5940159227210  0.5460236946956  0.5828433487814 1.0
Al     1  0.4119303764767  0.5601635509121  0.5828433576640 1.0
Al     1  0.4907276749115  0.3954029140946  0.5828433496952 1.0
Al     1  0.3834417510279  0.4437551185328  0.4314628874283 1.0
Al     1  0.6057846400800  0.4289352689630  0.4314628766446 1.0
Al     1  0.5074475617625  0.6288997840153  0.4314628864403 1.0
Al     1  0.3532939889643  0.5306004939488  0.4923889858796 1.0
Al     1  0.5456482227036  0.3594038485966  0.4923889724318 1.0
Al     1  0.5977317497506  0.6115858242150  0.4923889765538 1.0
Al     1  0.4956662492776  0.4337244864145  0.6896210592451 1.0
Al     1  0.5583591854792  0.5311398309101  0.6896210588463 1.0
Al     1  0.4426485543269  0.5367258340504  0.6896210644016 1.0
Al     1  0.5050388701210  0.6064864722511  0.6237507603269 1.0
Al     1  0.4040566033794  0.4528757709763  0.6237507610556 1.0
Al     1  0.5875785063458  0.4422279132840  0.6237507521982 1.0
Al     1  0.5036019072151  0.5637112158754  0.5203778527132 1.0
Al     1  0.4418195385829  0.4730189610021  0.5203778532453 1.0
Al     1  0.5512525195465  0.4648599876983  0.5203778479153 1.0
Al     1  0.4153211519657  0.6232426394269  0.4922276559950 1.0
Al     1  0.4344041897496  0.3667998747525  0.4922276484352 1.0
Al     1  0.6469486196812  0.5115476525945  0.4922276422575 1.0
Al     1  0.4494291653354  0.6005453313202  0.3426214946221 1.0
Al     1  0.4370066213518  0.4076869467457  0.3426214901935 1.0
Al     1  0.6102381537148  0.4933579003639  0.3426214843142 1.0
Al     1  0.4461279780667  0.5359281041711  0.4317485958583 1.0
Al     1  0.4946173794675  0.4371366412031  0.4317485910236 1.0
Al     1  0.5559285953750  0.5285254261141  0.4317485905303 1.0
Al     1  0.4988913257856  0.5005300526321  0.6060076539793 1.0
Al     1  0.4988913134103  0.5005300595083  0.3414000654204 1.0
END
