TITL Al-10352-5214-129 0.0000000000 8000.0000000000 -164.6791995480 0 0  38 (C5) n - 1
REM
REM Run started: at Wed Oct 4 17:03:34 BST 2023 in /home/michal/install/eddp/airss/examples/1.4
REM pp3 from code version ## 0.9.3 July 2022 commit b0220bf5cbf550a3b7
REM
REM
REM
REM Total runtime: s
REM
REM
REM ./Al.cell (51dbbcdc706028a6152540e3738facae)
REM ## AIRSS Version 0.9.3 July 2022 commit b0220bf5cbf550a3b7
REM compiler GCC version 11.4.0
REM options -cpp -imultiarch x86_64-linux-gnu -mtune=generic -march=x86-64 -g -Og -fpre-include=/usr/include/finclude/math-vector-fortran.h
REM cmdline: airss.pl -pp3 -cluster -max 200 -seed Al 
REM seed 194438253 -1230895869 778719108 -1181753850 1750092400 -644356770 -1004392997 1676042424
REM
REM Al.pp (e4fc5d4412d1ecf009fcd5f92cd21f1b)
REM 
CELL 1.54180   20.00000   20.00000   20.00000   90.00000   90.00000   90.00000
LATT -1
SFAC Al 
Al     1  0.6818755495767  0.4833701104524  0.5333952614556 1.0
Al     1  0.5258668024871  0.4833701030766  0.6839542782069 1.0
Al     1  0.3344673144014  0.4833700967624  0.5821064374588 1.0
Al     1  0.3721846724679  0.4833701002600  0.3686019935057 1.0
Al     1  0.5868947697885  0.4833701087339  0.3384968311025 1.0
Al     1  0.5692308336210  0.4308994235742  0.4343831888422 1.0
Al     1  0.5852237486497  0.4308994230999  0.5462263716643 1.0
Al     1  0.4837966433781  0.4308994187915  0.5959979818924 1.0
Al     1  0.4051183298874  0.4308994165659  0.5149153459304 1.0
Al     1  0.4579195632325  0.4308994195318  0.4150319107123 1.0
Al     1  0.6117190177286  0.5783540573168  0.3931548916318 1.0
Al     1  0.6375637577816  0.5783540564721  0.5738947978534 1.0
Al     1  0.4736563561565  0.5783540494503  0.6543263089178 1.0
Al     1  0.3465112708521  0.5783540458994  0.5232958103205 1.0
Al     1  0.4318386882308  0.5783540507764  0.3618829975359 1.0
Al     1  0.5716192617488  0.3885131205406  0.6467349006232 1.0
Al     1  0.3840033350364  0.3885131137275  0.6141181877512 1.0
Al     1  0.3570471626585  0.3885131145562  0.4256057195368 1.0
Al     1  0.5280032585317  0.3885131218886  0.3417153197305 1.0
Al     1  0.6606161087866  0.3885131255819  0.4783806695600 1.0
Al     1  0.5166841721151  0.6364101999743  0.4068242571722 1.0
Al     1  0.5951960353031  0.6364102021041  0.4877353574249 1.0
Al     1  0.5425065061504  0.6364101990974  0.5874074814729 1.0
Al     1  0.4314307231593  0.6364101950664  0.5680971416655 1.0
Al     1  0.4154716430116  0.6364101955647  0.4564905712750 1.0
Al     1  0.3184678461291  0.4833700990390  0.4702174384207 1.0
Al     1  0.4736533265087  0.4833701064017  0.3188099927297 1.0
Al     1  0.6656053150905  0.4833701126952  0.4196126813008 1.0
Al     1  0.6290526878427  0.4833701092306  0.6333196146862 1.0
Al     1  0.4145099332288  0.4833701008111  0.6645950746150 1.0
Al     1  0.4328352103685  0.5265880558371  0.5667343063697 1.0
Al     1  0.4172017887451  0.5265880563650  0.4574051741057 1.0
Al     1  0.5163489794887  0.5265880605498  0.4087523467141 1.0
Al     1  0.5932587348746  0.5265880627511  0.4880123780985 1.0
Al     1  0.5416443870268  0.5265880597995  0.5856505987353 1.0
Al     1  0.5002578179083  0.5842120430494  0.5013109613707 1.0
Al     1  0.5002578219827  0.4768426439501  0.5013109603517 1.0
Al     1  0.5002578260643  0.3697692206552  0.5013109592597 1.0
END
