TITL Al-10352-5214-173 0.0000000000 8000.0000000000 -165.7416997361 0 0  38 (Cs) n - 1
REM
REM Run started: at Wed Oct 4 17:05:04 BST 2023 in /home/michal/install/eddp/airss/examples/1.4
REM pp3 from code version ## 0.9.3 July 2022 commit b0220bf5cbf550a3b7
REM
REM
REM
REM Total runtime: s
REM
REM
REM ./Al.cell (51dbbcdc706028a6152540e3738facae)
REM ## AIRSS Version 0.9.3 July 2022 commit b0220bf5cbf550a3b7
REM compiler GCC version 11.4.0
REM options -cpp -imultiarch x86_64-linux-gnu -mtune=generic -march=x86-64 -g -Og -fpre-include=/usr/include/finclude/math-vector-fortran.h
REM cmdline: airss.pl -pp3 -cluster -max 200 -seed Al 
REM seed 2044667345 1496957592 628779359 1945176446 -1308323375 1327205321 -1169038834 -421043497
REM
REM Al.pp (e4fc5d4412d1ecf009fcd5f92cd21f1b)
REM 
CELL 1.54180   20.00000   20.00000   20.00000   90.00000   90.00000   90.00000
LATT -1
SFAC Al 
Al     1  0.4506162755229  0.4271898995443  0.5784930641957 1.0
Al     1  0.5627525862098  0.4271880802230  0.5720222721067 1.0
Al     1  0.5914108217691  0.4285717175925  0.4630242890831 1.0
Al     1  0.4967105619664  0.4288638193037  0.4024139960130 1.0
Al     1  0.4096106619031  0.4285746634508  0.4735149999810 1.0
Al     1  0.5082278549229  0.3370761476325  0.6020298704523 1.0
Al     1  0.6041113890064  0.3381419671525  0.5234933284525 1.0
Al     1  0.5592774042016  0.3391876193397  0.4085103652826 1.0
Al     1  0.4352573670029  0.3391896184830  0.4156669058368 1.0
Al     1  0.4039469966740  0.3381452211008  0.5350437484046 1.0
Al     1  0.4135296304909  0.5228922677505  0.5338390682764 1.0
Al     1  0.5077741443864  0.5228302664580  0.5941150296136 1.0
Al     1  0.5944597693038  0.5228893259357  0.5233985629548 1.0
Al     1  0.5533059435819  0.5245065094288  0.4183734574886 1.0
Al     1  0.4423297010362  0.5245083071290  0.4247773036437 1.0
Al     1  0.3383508863588  0.5101064470069  0.4554895171037 1.0
Al     1  0.4106352319506  0.5072380550214  0.6420214954372 1.0
Al     1  0.6097782932250  0.5072348126201  0.6305300134859 1.0
Al     1  0.6601268401445  0.5101012358809  0.4369215613507 1.0
Al     1  0.4924523684198  0.5098146535965  0.3285982105742 1.0
Al     1  0.3960542158365  0.7016298655576  0.5387764710667 1.0
Al     1  0.5037039710240  0.6841099127846  0.5235350989384 1.0
Al     1  0.6123929172258  0.7016263732965  0.5262927072069 1.0
Al     1  0.5542438413318  0.7076010409001  0.4286770418598 1.0
Al     1  0.4425891496911  0.7076028807193  0.4351200528268 1.0
Al     1  0.5987432252203  0.6130610518772  0.4626232684470 1.0
Al     1  0.4964946779238  0.6169531645659  0.3986200041174 1.0
Al     1  0.4022867832482  0.6130642448331  0.4739597008571 1.0
Al     1  0.4456658700643  0.6131448530308  0.5870438830343 1.0
Al     1  0.5686597289836  0.6131428643129  0.5799465570100 1.0
Al     1  0.6667643367121  0.4427141759442  0.5412950335946 1.0
Al     1  0.5940032432512  0.4452399928257  0.3547824572868 1.0
Al     1  0.3945853120138  0.4452432404401  0.3662897977548 1.0
Al     1  0.3437609707165  0.4427194000518  0.5599338275546 1.0
Al     1  0.5120345555014  0.4421316891079  0.6679689904087 1.0
Al     1  0.5022493634640  0.4747963326217  0.4983863272332 1.0
Al     1  0.5021836092694  0.3685209062861  0.4972767064182 1.0
Al     1  0.5023288004451  0.5800714761939  0.4997333146478 1.0
END
