TITL Al-10352-5214-56 0.0000000000 8000.0000000000 -159.3230493819 0 0  38 (C5) n - 1
REM
REM Run started: at Wed Oct 4 17:01:06 BST 2023 in /home/michal/install/eddp/airss/examples/1.4
REM pp3 from code version ## 0.9.3 July 2022 commit b0220bf5cbf550a3b7
REM
REM
REM
REM Total runtime: s
REM
REM
REM ./Al.cell (51dbbcdc706028a6152540e3738facae)
REM ## AIRSS Version 0.9.3 July 2022 commit b0220bf5cbf550a3b7
REM compiler GCC version 11.4.0
REM options -cpp -imultiarch x86_64-linux-gnu -mtune=generic -march=x86-64 -g -Og -fpre-include=/usr/include/finclude/math-vector-fortran.h
REM cmdline: airss.pl -pp3 -cluster -max 200 -seed Al 
REM seed -57244586 -305667565 -1741177418 -485507693 -329012477 1978220407 1970011626 1169547634
REM
REM Al.pp (e4fc5d4412d1ecf009fcd5f92cd21f1b)
REM 
CELL 1.54180   20.00000   20.00000   20.00000   90.00000   90.00000   90.00000
LATT -1
SFAC Al 
Al     1  0.5129406401970  0.6195655123535  0.5951784788427 1.0
Al     1  0.4158668523515  0.6195655169367  0.5407443954338 1.0
Al     1  0.4376392920818  0.6195655223458  0.4316006801751 1.0
Al     1  0.5481691881979  0.6195655217370  0.4185802379799 1.0
Al     1  0.5947079805792  0.6195655159778  0.5196768775988 1.0
Al     1  0.6424907965820  0.5633640483192  0.4364201571233 1.0
Al     1  0.6068881859478  0.5633640394141  0.6148948950968 1.0
Al     1  0.4261468115424  0.5633640405505  0.6361865272260 1.0
Al     1  0.3500451099691  0.5633640501588  0.4708707415197 1.0
Al     1  0.4837530459126  0.5633640547918  0.3474083348489 1.0
Al     1  0.6067394087196  0.4535301331349  0.6147321919483 1.0
Al     1  0.4262555698334  0.4535301342159  0.6359947506683 1.0
Al     1  0.3502611021856  0.4535301435467  0.4709149120181 1.0
Al     1  0.4837777759988  0.4535301482692  0.3476274027829 1.0
Al     1  0.6422900864601  0.4535301417965  0.4365113695446 1.0
Al     1  0.4263054032445  0.6753835031530  0.6359029965675 1.0
Al     1  0.3503637778213  0.6753835122661  0.4709339582372 1.0
Al     1  0.4837914034879  0.6753835171191  0.3477309438025 1.0
Al     1  0.6421958368434  0.6753835104711  0.4365563316954 1.0
Al     1  0.6066675353416  0.6753835020399  0.6146564547707 1.0
Al     1  0.4152328224175  0.3988916245964  0.5410371586477 1.0
Al     1  0.4371649192465  0.3988916303870  0.4310881452359 1.0
Al     1  0.5485100355067  0.3988916297463  0.4179706951333 1.0
Al     1  0.5953930051761  0.3988916235326  0.5198126783325 1.0
Al     1  0.5130231576540  0.3988916208263  0.5958719358380 1.0
Al     1  0.3729496161242  0.4619267481079  0.3615450394628 1.0
Al     1  0.5948058431979  0.4619267467740  0.3354083126665 1.0
Al     1  0.6882206922509  0.4619267350867  0.5383294305221 1.0
Al     1  0.5240980166034  0.4619267291966  0.6898783054172 1.0
Al     1  0.3292497757857  0.4619267372456  0.5806195428835 1.0
Al     1  0.4173567244127  0.5097121308903  0.5400589937870 1.0
Al     1  0.4387515368386  0.5097121356555  0.4328058289043 1.0
Al     1  0.5473667200718  0.5097121349830  0.4200104545726 1.0
Al     1  0.5930997805587  0.5097121298435  0.5193556433832 1.0
Al     1  0.5127491847779  0.5097121266920  0.5935497206322 1.0
Al     1  0.5018647887611  0.4532198907142  0.5011561255826 1.0
Al     1  0.5018647900029  0.5655948445107  0.5011561314512 1.0
Al     1  0.5018647873158  0.3417743126140  0.5011561196670 1.0
END
