TITL Al-10352-5214-136 0.0000000000 8000.0000000000 -160.1658030380 0 0  38 (C5) n - 1
REM
REM Run started: at Wed Oct 4 17:03:48 BST 2023 in /home/michal/install/eddp/airss/examples/1.4
REM pp3 from code version ## 0.9.3 July 2022 commit b0220bf5cbf550a3b7
REM
REM
REM
REM Total runtime: s
REM
REM
REM ./Al.cell (51dbbcdc706028a6152540e3738facae)
REM ## AIRSS Version 0.9.3 July 2022 commit b0220bf5cbf550a3b7
REM compiler GCC version 11.4.0
REM options -cpp -imultiarch x86_64-linux-gnu -mtune=generic -march=x86-64 -g -Og -fpre-include=/usr/include/finclude/math-vector-fortran.h
REM cmdline: airss.pl -pp3 -cluster -max 200 -seed Al 
REM seed -1008661875 -1475446185 663658947 1464840500 -695686060 -517449059 -894818896 2130399804
REM
REM Al.pp (e4fc5d4412d1ecf009fcd5f92cd21f1b)
REM 
CELL 1.54180   20.00000   20.00000   20.00000   90.00000   90.00000   90.00000
LATT -1
SFAC Al 
Al     1  0.5776426442370  0.4437821650538  0.4562677638735 1.0
Al     1  0.5775554714438  0.5589804822642  0.4562677667615 1.0
Al     1  0.4679684239143  0.5944958146064  0.4562678180562 1.0
Al     1  0.4003270744820  0.5012471798237  0.4562678479480 1.0
Al     1  0.4681094709054  0.4081010203659  0.4562678145641 1.0
Al     1  0.5524547547910  0.3351405648678  0.6194780406696 1.0
Al     1  0.6730963354876  0.5014532008739  0.6194779911902 1.0
Al     1  0.5522039179198  0.6675835935214  0.6194780513287 1.0
Al     1  0.3568467143281  0.6039451870851  0.6194781375145 1.0
Al     1  0.3570017392707  0.3984840956249  0.6194781319354 1.0
Al     1  0.3722056663565  0.5928034474732  0.4029523965003 1.0
Al     1  0.3723442783012  0.4096484384738  0.4029523908822 1.0
Al     1  0.5465778774984  0.3531822568156  0.4029523099896 1.0
Al     1  0.6541215488207  0.5014392473260  0.4029522659717 1.0
Al     1  0.5463535967420  0.6495332847196  0.4029523192992 1.0
Al     1  0.6356468646872  0.6012534572925  0.5546385799094 1.0
Al     1  0.4457156917072  0.6628070346217  0.5546386678906 1.0
Al     1  0.3284828020828  0.5011928562712  0.5546387163207 1.0
Al     1  0.4459600626299  0.3397562257254  0.5546386583055 1.0
Al     1  0.6357978931819  0.4015970765139  0.5546385739254 1.0
Al     1  0.4687089053111  0.4099507629160  0.3453768766569 1.0
Al     1  0.5760686396508  0.4449239125098  0.3453768269692 1.0
Al     1  0.5759831799385  0.5578363840128  0.3453768293818 1.0
Al     1  0.4685706302206  0.5926469806939  0.3453768796092 1.0
Al     1  0.4022714814317  0.5012486409471  0.3453769091457 1.0
Al     1  0.5275717575330  0.4115268692837  0.5486933606707 1.0
Al     1  0.5927593544123  0.5013927625352  0.5486933327564 1.0
Al     1  0.5274358857878  0.5911599399148  0.5486933648727 1.0
Al     1  0.4218761653339  0.5567732123418  0.5486934125596 1.0
Al     1  0.4219601388777  0.4457538693285  0.5486934101519 1.0
Al     1  0.5801401367076  0.4419703507546  0.6429171743352 1.0
Al     1  0.5800504326426  0.5607957728643  0.6429171772941 1.0
Al     1  0.4670130206355  0.5974295334197  0.6429172297772 1.0
Al     1  0.3972417629479  0.5012450211265  0.6429172590540 1.0
Al     1  0.4671581650234  0.4051659628611  0.6429172247798 1.0
Al     1  0.4983205902404  0.5013213344820  0.3966296390298 1.0
Al     1  0.4983206871550  0.5013213293356  0.6061851435161 1.0
Al     1  0.4983206373628  0.5013213313530  0.5002420066034 1.0
END
