TITL Al-10352-5214-135 0.0000000000 8000.0000000000 -157.1754901368 0 0  38 (C3) n - 1
REM
REM Run started: at Wed Oct 4 17:03:46 BST 2023 in /home/michal/install/eddp/airss/examples/1.4
REM pp3 from code version ## 0.9.3 July 2022 commit b0220bf5cbf550a3b7
REM
REM
REM
REM Total runtime: s
REM
REM
REM ./Al.cell (51dbbcdc706028a6152540e3738facae)
REM ## AIRSS Version 0.9.3 July 2022 commit b0220bf5cbf550a3b7
REM compiler GCC version 11.4.0
REM options -cpp -imultiarch x86_64-linux-gnu -mtune=generic -march=x86-64 -g -Og -fpre-include=/usr/include/finclude/math-vector-fortran.h
REM cmdline: airss.pl -pp3 -cluster -max 200 -seed Al 
REM seed -126586582 -121024258 530886139 -782092637 285362337 1121844148 640285165 1539421905
REM
REM Al.pp (e4fc5d4412d1ecf009fcd5f92cd21f1b)
REM 
CELL 1.54180   20.00000   20.00000   20.00000   90.00000   90.00000   90.00000
LATT -1
SFAC Al 
Al     1  0.5140702814244  0.4388605193846  0.6976368842887 1.0
Al     1  0.5140606819534  0.7004665516447  0.4589265919494 1.0
Al     1  0.5140959605672  0.3629862722823  0.3517601719802 1.0
Al     1  0.4174677453205  0.6067455123098  0.6139358926739 1.0
Al     1  0.4174730761120  0.5440234182475  0.3554620756057 1.0
Al     1  0.4174764506150  0.3515361513512  0.5390042878213 1.0
Al     1  0.5648798776169  0.4424581072623  0.4110352441611 1.0
Al     1  0.5648862349792  0.4504497765743  0.5991870832727 1.0
Al     1  0.5648490591822  0.6094182054372  0.4981932024541 1.0
Al     1  0.4789824823958  0.3882190646437  0.4523394555181 1.0
Al     1  0.4789646449057  0.5133262585945  0.6254719481077 1.0
Al     1  0.4789837387780  0.6007062975204  0.4305740317308 1.0
Al     1  0.3636019325114  0.4961446772936  0.4389692748976 1.0
Al     1  0.3636327029846  0.4478321093367  0.5387590589349 1.0
Al     1  0.3635534331411  0.5584219774482  0.5307080372916 1.0
Al     1  0.4292189389686  0.6554448199623  0.5149868240247 1.0
Al     1  0.4291859288174  0.4339733756715  0.3627505818720 1.0
Al     1  0.4291640067898  0.4128895008122  0.6306564767418 1.0
Al     1  0.4777846222859  0.5874009505989  0.7052155336539 1.0
Al     1  0.4777808878210  0.6327475565367  0.3265594925703 1.0
Al     1  0.4778025136204  0.2821264984908  0.4766409647017 1.0
Al     1  0.5715465668955  0.6374314470396  0.3866037061541 1.0
Al     1  0.5715553111656  0.3318070566197  0.4425280497943 1.0
Al     1  0.5715409991550  0.5330454629690  0.6792350619187 1.0
Al     1  0.6137451626062  0.5430903951130  0.4203628568610 1.0
Al     1  0.6137324261219  0.4082169078006  0.5073740373744 1.0
Al     1  0.6137661758710  0.5510228757350  0.5806621311289 1.0
Al     1  0.3707266502458  0.5080940948802  0.6304362410540 1.0
Al     1  0.3707559085873  0.6076584578493  0.4326655816921 1.0
Al     1  0.3707438824602  0.3866205650414  0.4453279080513 1.0
Al     1  0.5269236902036  0.3562990835258  0.5478710156174 1.0
Al     1  0.5269006915452  0.6119934562567  0.6053428568595 1.0
Al     1  0.5269148525804  0.5339536010645  0.3551725168347 1.0
Al     1  0.4710768392491  0.4949239431940  0.4405233491351 1.0
Al     1  0.4711042313311  0.4497225205846  0.5389781695191 1.0
Al     1  0.4710329186316  0.5575843850876  0.5288867501270 1.0
Al     1  0.5586345851585  0.5007870715808  0.5028060965121 1.0
Al     1  0.6714190074015  0.5007593742548  0.5027957571143 1.0
END
