TITL Al-10352-5214-118 0.0000000000 8000.0000000000 -163.8617539730 0 0  38 (C3) n - 1
REM
REM Run started: at Wed Oct 4 17:03:12 BST 2023 in /home/michal/install/eddp/airss/examples/1.4
REM pp3 from code version ## 0.9.3 July 2022 commit b0220bf5cbf550a3b7
REM
REM
REM
REM Total runtime: s
REM
REM
REM ./Al.cell (51dbbcdc706028a6152540e3738facae)
REM ## AIRSS Version 0.9.3 July 2022 commit b0220bf5cbf550a3b7
REM compiler GCC version 11.4.0
REM options -cpp -imultiarch x86_64-linux-gnu -mtune=generic -march=x86-64 -g -Og -fpre-include=/usr/include/finclude/math-vector-fortran.h
REM cmdline: airss.pl -pp3 -cluster -max 200 -seed Al 
REM seed 543022961 -1188815370 1902215865 1141526845 782903424 2144627945 1756472716 -1947404601
REM
REM Al.pp (e4fc5d4412d1ecf009fcd5f92cd21f1b)
REM 
CELL 1.54180   20.00000   20.00000   20.00000   90.00000   90.00000   90.00000
LATT -1
SFAC Al 
Al     1  0.3506033835369  0.4742812174824  0.4260173974593 1.0
Al     1  0.5040996873760  0.4742813329927  0.6746832608578 1.0
Al     1  0.6427024903477  0.4742813926472  0.4174186302310 1.0
Al     1  0.6625346877281  0.4957774900971  0.5902220362156 1.0
Al     1  0.4903394054681  0.4957773623567  0.3224404935434 1.0
Al     1  0.3445314289502  0.4957773006694  0.6054567537283 1.0
Al     1  0.5525280559799  0.5049408482268  0.5838682711511 1.0
Al     1  0.5398401926787  0.5049408253304  0.4208859075757 1.0
Al     1  0.4050372572681  0.5049407526871  0.5133651014447 1.0
Al     1  0.4006542361299  0.3979842332901  0.4925227474066 1.0
Al     1  0.5366696468308  0.3979843251596  0.5980853264495 1.0
Al     1  0.5600818166066  0.3979843233110  0.4275112359241 1.0
Al     1  0.5625304099198  0.3327753872294  0.5148291331766 1.0
Al     1  0.4750495102951  0.3327753282019  0.4467432978876 1.0
Al     1  0.4598258971482  0.3327753292205  0.5565468970129 1.0
Al     1  0.6365174215728  0.6012272143790  0.5892982790764 1.0
Al     1  0.5025479551410  0.6012271117831  0.3454339160866 1.0
Al     1  0.3583399551680  0.6012270469501  0.5833870588620 1.0
Al     1  0.4559014373785  0.4339913707399  0.4058773182431 1.0
Al     1  0.4340088737018  0.4339913749523  0.5935625374106 1.0
Al     1  0.6074953232289  0.4339914724964  0.5186794440593 1.0
Al     1  0.4807513733816  0.6447075712077  0.4439735509955 1.0
Al     1  0.4545760374820  0.6447075652991  0.5529936063546 1.0
Al     1  0.5620778428560  0.6447076269547  0.5211520846696 1.0
Al     1  0.4488368851754  0.5416550088582  0.6044468875724 1.0
Al     1  0.6095073526823  0.5416550957352  0.5003957633266 1.0
Al     1  0.4390612019154  0.5416549852028  0.4132766191061 1.0
Al     1  0.3049157001144  0.4346299886422  0.5232442704297 1.0
Al     1  0.6111445034254  0.4346301858010  0.6656365461717 1.0
Al     1  0.5813454290411  0.4346301372255  0.3292384840813 1.0
Al     1  0.5991075014178  0.5419391766866  0.6762980501243 1.0
Al     1  0.5965969757210  0.5419391439327  0.3343320106485 1.0
Al     1  0.3017009617483  0.5419389823236  0.5074892095226 1.0
Al     1  0.5816095838054  0.6076210794275  0.4203852794683 1.0
Al     1  0.3837189204331  0.6076209655888  0.4774419941062 1.0
Al     1  0.5320768163158  0.6076210682516  0.6202919789220 1.0
Al     1  0.4991352047125  0.4451852221816  0.5060397655472 1.0
Al     1  0.4991351373173  0.5570133564784  0.5060397551516 1.0
END
