TITL Al-10352-5214-53 0.0000000000 8000.0000000000 -166.1151583758 0 0  38 (C2) n - 1
REM
REM Run started: at Wed Oct 4 17:01:00 BST 2023 in /home/michal/install/eddp/airss/examples/1.4
REM pp3 from code version ## 0.9.3 July 2022 commit b0220bf5cbf550a3b7
REM
REM
REM
REM Total runtime: s
REM
REM
REM ./Al.cell (51dbbcdc706028a6152540e3738facae)
REM ## AIRSS Version 0.9.3 July 2022 commit b0220bf5cbf550a3b7
REM compiler GCC version 11.4.0
REM options -cpp -imultiarch x86_64-linux-gnu -mtune=generic -march=x86-64 -g -Og -fpre-include=/usr/include/finclude/math-vector-fortran.h
REM cmdline: airss.pl -pp3 -cluster -max 200 -seed Al 
REM seed 2058840657 1426692912 -2067587187 858274943 1861303915 -410202772 -1594373210 1617339447
REM
REM Al.pp (e4fc5d4412d1ecf009fcd5f92cd21f1b)
REM 
CELL 1.54180   20.00000   20.00000   20.00000   90.00000   90.00000   90.00000
LATT -1
SFAC Al 
Al     1  0.5329377370915  0.4111198752115  0.3623155938290 1.0
Al     1  0.5329377565069  0.5888801470167  0.6376844379600 1.0
Al     1  0.4823241799820  0.5999283021360  0.3489934623865 1.0
Al     1  0.4823242297033  0.4000716821306  0.6510065442720 1.0
Al     1  0.3451366020915  0.4610875100199  0.3907462577105 1.0
Al     1  0.3451366137850  0.5389125202350  0.6092536727614 1.0
Al     1  0.6684366450363  0.5369174530606  0.3909221274420 1.0
Al     1  0.6684366586955  0.4630825846222  0.6090778876643 1.0
Al     1  0.6215397863446  0.5590159172514  0.5730841705071 1.0
Al     1  0.6215397644842  0.4409841168441  0.4269158537779 1.0
Al     1  0.3850527584877  0.4413250729019  0.5739805876553 1.0
Al     1  0.3850527976276  0.5586749155123  0.4260194074719 1.0
Al     1  0.4178004897751  0.4568537958288  0.4702656675027 1.0
Al     1  0.4178005217094  0.5431460306813  0.5297342724823 1.0
Al     1  0.5943314060347  0.5447119256232  0.4682809642102 1.0
Al     1  0.5943313963495  0.4552880965432  0.5317190672083 1.0
Al     1  0.5072382173065  0.6773405829798  0.4364086797049 1.0
Al     1  0.5072382903037  0.3226594728320  0.5635913098793 1.0
Al     1  0.5134890342165  0.3628601619332  0.4607277830497 1.0
Al     1  0.5134892002737  0.6371398908659  0.5392721960640 1.0
Al     1  0.5207460605788  0.5312694063134  0.5460165362911 1.0
Al     1  0.5207460393717  0.4687306413343  0.4539835017242 1.0
Al     1  0.4905369708279  0.4290920895051  0.5490720659660 1.0
Al     1  0.4905370069788  0.5709079568485  0.4509279496031 1.0
Al     1  0.5601852258741  0.4818830731981  0.6337744816798 1.0
Al     1  0.5601852156661  0.5181169456209  0.3662255454222 1.0
Al     1  0.4532841792559  0.5076538454719  0.6282454420365 1.0
Al     1  0.4532841801666  0.4923461289944  0.3717545625772 1.0
Al     1  0.4150039414609  0.3555590229005  0.5083888424516 1.0
Al     1  0.4150039936689  0.6444408876083  0.4916112802570 1.0
Al     1  0.6117386528128  0.6474475699480  0.4949591596538 1.0
Al     1  0.6117384791215  0.3525524389468  0.5050408265293 1.0
Al     1  0.4291602496761  0.3836311058311  0.3927913075822 1.0
Al     1  0.4291603270647  0.6163688298201  0.6072085361161 1.0
Al     1  0.5872172920279  0.6199972669755  0.3896285751769 1.0
Al     1  0.5872173557119  0.3800027569186  0.6103714680585 1.0
Al     1  0.6882919407946  0.5000000057433  0.5000000090228 1.0
Al     1  0.3218838031356  0.4999999737919  0.4999999663129 1.0
END
