TITL Al-10352-5214-156 0.0000000000 8000.0000000000 -152.2765776724 0 0  38 (C5) n - 1
REM
REM Run started: at Wed Oct 4 17:04:28 BST 2023 in /home/michal/install/eddp/airss/examples/1.4
REM pp3 from code version ## 0.9.3 July 2022 commit b0220bf5cbf550a3b7
REM
REM
REM
REM Total runtime: s
REM
REM
REM ./Al.cell (51dbbcdc706028a6152540e3738facae)
REM ## AIRSS Version 0.9.3 July 2022 commit b0220bf5cbf550a3b7
REM compiler GCC version 11.4.0
REM options -cpp -imultiarch x86_64-linux-gnu -mtune=generic -march=x86-64 -g -Og -fpre-include=/usr/include/finclude/math-vector-fortran.h
REM cmdline: airss.pl -pp3 -cluster -max 200 -seed Al 
REM seed 1594824250 571299548 -635394210 -756325788 -1130536334 458853114 -1981388039 307113576
REM
REM Al.pp (e4fc5d4412d1ecf009fcd5f92cd21f1b)
REM 
CELL 1.54180   20.00000   20.00000   20.00000   90.00000   90.00000   90.00000
LATT -1
SFAC Al 
Al     1  0.6722134795785  0.5420167575457  0.5976440509031 1.0
Al     1  0.6722135193116  0.6036758816317  0.4943622355036 1.0
Al     1  0.6722143014487  0.5245027379752  0.4038050775335 1.0
Al     1  0.6722147448496  0.4139119485144  0.4511194944671 1.0
Al     1  0.6722142455117  0.4247361822269  0.5709185564139 1.0
Al     1  0.3815197716563  0.5231341494312  0.4098138538796 1.0
Al     1  0.3815203073189  0.4192041686418  0.4542789250659 1.0
Al     1  0.3815197152350  0.4293762951253  0.5668627256475 1.0
Al     1  0.3815188006217  0.5395936930073  0.5919790591452 1.0
Al     1  0.3815188298233  0.5975395762228  0.4949169530833 1.0
Al     1  0.2873894888777  0.5761479875799  0.4385407049851 1.0
Al     1  0.2873903698679  0.4629069629949  0.4127360929967 1.0
Al     1  0.2873903411810  0.4033718301672  0.5124604701012 1.0
Al     1  0.2873894309107  0.4798179456803  0.5998984498648 1.0
Al     1  0.2873888953131  0.5865996946028  0.5542135729543 1.0
Al     1  0.5776266140598  0.5691537820166  0.6610734714782 1.0
Al     1  0.5776266747268  0.6723866326963  0.4881535995860 1.0
Al     1  0.5776286319653  0.5398308898982  0.3365378802065 1.0
Al     1  0.5776297740361  0.3546734925349  0.4157542747710 1.0
Al     1  0.5776285386058  0.3727963180777  0.6163285904722 1.0
Al     1  0.5805645793508  0.4063650194892  0.5121896075635 1.0
Al     1  0.5805639157644  0.4804852171109  0.5969669079849 1.0
Al     1  0.5805635230689  0.5840174395336  0.5526722163656 1.0
Al     1  0.5805639691466  0.5738841336712  0.4405193927398 1.0
Al     1  0.5805646109247  0.4640888831899  0.4154994558160 1.0
Al     1  0.4356438538560  0.4398912070925  0.3589399576741 1.0
Al     1  0.4356437955927  0.3450963509781  0.5177257259832 1.0
Al     1  0.4356449149096  0.4668173776727  0.6569484410580 1.0
Al     1  0.4356456935487  0.6368398754460  0.5842070836848 1.0
Al     1  0.4356450131172  0.6201986245757  0.4000277536652 1.0
Al     1  0.4894197826959  0.5240778172793  0.4056664772892 1.0
Al     1  0.4894202650824  0.4155502436494  0.4520975278020 1.0
Al     1  0.4894197230396  0.4261731744218  0.5696612572773 1.0
Al     1  0.4894188952483  0.5412645094216  0.5958867925240 1.0
Al     1  0.4894189283023  0.6017721516295  0.4945337045061 1.0
Al     1  0.5266604994290  0.5017674601840  0.5035690933907 1.0
Al     1  0.6348906356824  0.5017684257741  0.5035697063227 1.0
Al     1  0.3325252263407  0.5017693623091  0.5035701592942 1.0
END
