TITL Al-10352-5214-7 0.0000000000 8000.0000000000 -164.3290652488 0 0  38 (C3) n - 1
REM
REM Run started: at Wed Oct 4 16:59:29 BST 2023 in /home/michal/install/eddp/airss/examples/1.4
REM pp3 from code version ## 0.9.3 July 2022 commit b0220bf5cbf550a3b7
REM
REM
REM
REM Total runtime: s
REM
REM
REM ./Al.cell (51dbbcdc706028a6152540e3738facae)
REM ## AIRSS Version 0.9.3 July 2022 commit b0220bf5cbf550a3b7
REM compiler GCC version 11.4.0
REM options -cpp -imultiarch x86_64-linux-gnu -mtune=generic -march=x86-64 -g -Og -fpre-include=/usr/include/finclude/math-vector-fortran.h
REM cmdline: airss.pl -pp3 -cluster -max 200 -seed Al 
REM seed -1384099264 1930355237 -983258319 -1556125963 62811197 1871766453 1704408319 -1620087907
REM
REM Al.pp (e4fc5d4412d1ecf009fcd5f92cd21f1b)
REM 
CELL 1.54180   20.00000   20.00000   20.00000   90.00000   90.00000   90.00000
LATT -1
SFAC Al 
Al     1  0.4979464207567  0.5082226026932  0.6610595503822 1.0
Al     1  0.4979464363730  0.6394828086317  0.4122881066970 1.0
Al     1  0.4979464323786  0.3584103143057  0.4229991539221 1.0
Al     1  0.4027824652803  0.3464352736562  0.4718861965963 1.0
Al     1  0.4027824597585  0.5565475550583  0.6469867062047 1.0
Al     1  0.4027824796820  0.6031328978655  0.3774738798960 1.0
Al     1  0.6372293489205  0.4724863758063  0.4389975527777 1.0
Al     1  0.6372293425049  0.4650395795113  0.5542675938836 1.0
Al     1  0.6372293474319  0.5685897619651  0.5030816864763 1.0
Al     1  0.4752316111789  0.4345225646957  0.3138628347083 1.0
Al     1  0.4752315864678  0.3756516436529  0.6497125580086 1.0
Al     1  0.4752316038822  0.6959415056059  0.5327713974844 1.0
Al     1  0.5738610750944  0.5484093550526  0.5933199872555 1.0
Al     1  0.5738610855029  0.5607252414791  0.4113551443001 1.0
Al     1  0.5738610792245  0.3969811230033  0.4916716938955 1.0
Al     1  0.4172948330501  0.4554396978131  0.6017214714128 1.0
Al     1  0.4172948442588  0.6144859755664  0.4876684696002 1.0
Al     1  0.4172948476915  0.4361900496449  0.4069568530148 1.0
Al     1  0.3886082000197  0.5059887920503  0.3299774423092 1.0
Al     1  0.3886081846726  0.3538742038837  0.5797636771810 1.0
Al     1  0.3886081893330  0.6462527296673  0.5866056593467 1.0
Al     1  0.6029865140836  0.4665616777512  0.6622372551467 1.0
Al     1  0.6029865259735  0.6613331875567  0.4477786765160 1.0
Al     1  0.6029865268079  0.3782208525874  0.3863308940233 1.0
Al     1  0.5314564159593  0.6064530950227  0.5090340048242 1.0
Al     1  0.5314564233113  0.4587095739029  0.4032307760722 1.0
Al     1  0.5314564073788  0.4409530484438  0.5840820374328 1.0
Al     1  0.4662009084777  0.4378708067423  0.5000019979606 1.0
Al     1  0.4662009045965  0.5351787737370  0.5537433182016 1.0
Al     1  0.4662009121496  0.5330661417506  0.4426014890969 1.0
Al     1  0.4922438124977  0.5443505693384  0.3388757353196 1.0
Al     1  0.4922437980506  0.3423994518349  0.5420922667461 1.0
Al     1  0.4922437966149  0.6193656962539  0.6153787964866 1.0
Al     1  0.3583992983900  0.5421200294762  0.5481594158178 1.0
Al     1  0.3583993074191  0.5247597217117  0.4393821274196 1.0
Al     1  0.3583993023219  0.4392359809912  0.5088052390804 1.0
Al     1  0.5523793822494  0.5020385713123  0.4987822693526 1.0
Al     1  0.7259586902555  0.5020385699786  0.4987822851502 1.0
END
