TITL Al-10352-5214-105 0.0000000000 8000.0000000000 -169.6523515804 0 0  38 (Cs) n - 1
REM
REM Run started: at Wed Oct 4 17:02:46 BST 2023 in /home/michal/install/eddp/airss/examples/1.4
REM pp3 from code version ## 0.9.3 July 2022 commit b0220bf5cbf550a3b7
REM
REM
REM
REM Total runtime: s
REM
REM
REM ./Al.cell (51dbbcdc706028a6152540e3738facae)
REM ## AIRSS Version 0.9.3 July 2022 commit b0220bf5cbf550a3b7
REM compiler GCC version 11.4.0
REM options -cpp -imultiarch x86_64-linux-gnu -mtune=generic -march=x86-64 -g -Og -fpre-include=/usr/include/finclude/math-vector-fortran.h
REM cmdline: airss.pl -pp3 -cluster -max 200 -seed Al 
REM seed -619242922 313160285 -1749843572 350540876 86734941 43317439 1865071956 -1699159685
REM
REM Al.pp (e4fc5d4412d1ecf009fcd5f92cd21f1b)
REM 
CELL 1.54180   20.00000   20.00000   20.00000   90.00000   90.00000   90.00000
LATT -1
SFAC Al 
Al     1  0.3424968884494  0.5700284342802  0.5689069200163 1.0
Al     1  0.3791145793256  0.3677026374789  0.5647960899452 1.0
Al     1  0.5837070809938  0.3400887661379  0.5651971197625 1.0
Al     1  0.6727320017148  0.5253140895278  0.5651730492833 1.0
Al     1  0.5233617332861  0.6678249505929  0.5647577666348 1.0
Al     1  0.4183915383577  0.5335432031880  0.5050621033534 1.0
Al     1  0.4373143322606  0.4294249743468  0.5020194796165 1.0
Al     1  0.5427531549660  0.4153231112157  0.5036953870503 1.0
Al     1  0.5883938251785  0.5102831684074  0.5036829768867 1.0
Al     1  0.5115152211851  0.5838080134254  0.5019996919768 1.0
Al     1  0.5194125009332  0.6662297236830  0.4356146288656 1.0
Al     1  0.3359827559502  0.5731439342950  0.4519914720524 1.0
Al     1  0.3778807734337  0.3717554755647  0.4356526376618 1.0
Al     1  0.5880133744834  0.3401308413979  0.4446493943287 1.0
Al     1  0.6753766503190  0.5218979656561  0.4446246082834 1.0
Al     1  0.4778133211496  0.3279577437223  0.5092866472786 1.0
Al     1  0.6511476976876  0.4216736594238  0.5058123662491 1.0
Al     1  0.6160482631476  0.6155704986524  0.5092503264374 1.0
Al     1  0.4196724868111  0.6421324163750  0.5080786021854 1.0
Al     1  0.3343977121360  0.4647088609510  0.5081014901511 1.0
Al     1  0.4883945867010  0.3878409632293  0.4156386090940 1.0
Al     1  0.5932553060123  0.4494855855907  0.4114378926790 1.0
Al     1  0.5758880983139  0.5698804308727  0.4156155348804 1.0
Al     1  0.4439304819051  0.5852344249930  0.4136200154173 1.0
Al     1  0.3939721303233  0.4812899522080  0.4136334690127 1.0
Al     1  0.4534432279298  0.5824537924155  0.5984585582586 1.0
Al     1  0.4021044542557  0.4756377400994  0.5984722619774 1.0
Al     1  0.4865762587327  0.3958485401234  0.5980929474102 1.0
Al     1  0.5900722200590  0.4510404686668  0.5978702567953 1.0
Al     1  0.5685172334599  0.5663353968762  0.5980711622552 1.0
Al     1  0.5811151901913  0.5164026046548  0.3222333323049 1.0
Al     1  0.5161617963747  0.6101296546800  0.3343404444297 1.0
Al     1  0.4718016551394  0.5078510196986  0.3384788338355 1.0
Al     1  0.4196458562188  0.4093181345099  0.3343661004873 1.0
Al     1  0.5334092234849  0.4171456141436  0.3222449922438 1.0
Al     1  0.4998048872298  0.4944204360987  0.5577439663065 1.0
Al     1  0.5002826309885  0.4942041930543  0.6629269975038 1.0
Al     1  0.4996831709110  0.4944641797629  0.4416841670895 1.0
END
