TITL Al-10352-5214-157 0.0000000000 8000.0000000000 -164.6435395659 0 0  38 (Cs) n - 1
REM
REM Run started: at Wed Oct 4 17:04:31 BST 2023 in /home/michal/install/eddp/airss/examples/1.4
REM pp3 from code version ## 0.9.3 July 2022 commit b0220bf5cbf550a3b7
REM
REM
REM
REM Total runtime: s
REM
REM
REM ./Al.cell (51dbbcdc706028a6152540e3738facae)
REM ## AIRSS Version 0.9.3 July 2022 commit b0220bf5cbf550a3b7
REM compiler GCC version 11.4.0
REM options -cpp -imultiarch x86_64-linux-gnu -mtune=generic -march=x86-64 -g -Og -fpre-include=/usr/include/finclude/math-vector-fortran.h
REM cmdline: airss.pl -pp3 -cluster -max 200 -seed Al 
REM seed -727470260 -990228415 -1370279119 296559669 -38364789 -1832621802 -1616981478 -691711842
REM
REM Al.pp (e4fc5d4412d1ecf009fcd5f92cd21f1b)
REM 
CELL 1.54180   20.00000   20.00000   20.00000   90.00000   90.00000   90.00000
LATT -1
SFAC Al 
Al     1  0.3540602368979  0.4145623547024  0.5392530860223 1.0
Al     1  0.3528839223499  0.4379623779582  0.4300448836590 1.0
Al     1  0.3540554822415  0.5490573539264  0.4185589056651 1.0
Al     1  0.3557179649049  0.5943463763039  0.5206582573766 1.0
Al     1  0.3557208445417  0.5111821638487  0.5952888779628 1.0
Al     1  0.6336809470045  0.6018797068472  0.6126935658061 1.0
Al     1  0.6324250243985  0.4207537762811  0.6308966966837 1.0
Al     1  0.6305473932009  0.3497087493651  0.4629807785325 1.0
Al     1  0.6305422714985  0.4802345185978  0.3458474699712 1.0
Al     1  0.6324176191674  0.6395088515381  0.4345870378258 1.0
Al     1  0.5187493060226  0.4839289463486  0.3447543164766 1.0
Al     1  0.5213693756979  0.6411602819888  0.4362554746340 1.0
Al     1  0.5229744253116  0.6028517557739  0.6137814238855 1.0
Al     1  0.5213769037739  0.4222297153804  0.6327217455584 1.0
Al     1  0.5187543882042  0.3482185840692  0.4665395104033 1.0
Al     1  0.5769821328503  0.5087337643951  0.5920503195720 1.0
Al     1  0.5751076622964  0.4123016098122  0.5366781862812 1.0
Al     1  0.5731925641232  0.4361209250858  0.4279841547057 1.0
Al     1  0.5751029041668  0.5467494727841  0.4160257514474 1.0
Al     1  0.5769793248947  0.5913993037229  0.5178668220765 1.0
Al     1  0.6880050533392  0.5077754754894  0.5907526134019 1.0
Al     1  0.6870500561965  0.4121536945624  0.5342710777686 1.0
Al     1  0.6309116338904  0.4979170732124  0.4968443813930 1.0
Al     1  0.6870453030160  0.5443759401308  0.4156150718146 1.0
Al     1  0.6880023140539  0.5902165540889  0.5167701460625 1.0
Al     1  0.4122110273180  0.6042012869816  0.6152898575567 1.0
Al     1  0.4105659247438  0.4231901191081  0.6340110241449 1.0
Al     1  0.4078372991505  0.3494596654808  0.4677212989670 1.0
Al     1  0.4078323273623  0.4849658455431  0.3461196433352 1.0
Al     1  0.4105583280103  0.6423343476803  0.4373534711858 1.0
Al     1  0.4648874936478  0.4137984725310  0.5377708914798 1.0
Al     1  0.4635491299218  0.4370876322336  0.4290657654870 1.0
Al     1  0.4648827608329  0.5476703816881  0.4176356794397 1.0
Al     1  0.4665305886429  0.5927506955724  0.5192529419567 1.0
Al     1  0.4665334394989  0.5099615579203  0.5935470871055 1.0
Al     1  0.5203043755393  0.4997568386292  0.4988986543225 1.0
Al     1  0.2972388159293  0.5020512977483  0.5014641709585 1.0
Al     1  0.4098068353590  0.5008624326694  0.5001349590746 1.0
END
