TITL Al-10352-5214-41 0.0000000000 8000.0000000000 -163.9593615091 0 0  38 (Ci) n - 1
REM
REM Run started: at Wed Oct 4 17:00:36 BST 2023 in /home/michal/install/eddp/airss/examples/1.4
REM pp3 from code version ## 0.9.3 July 2022 commit b0220bf5cbf550a3b7
REM
REM
REM
REM Total runtime: s
REM
REM
REM ./Al.cell (51dbbcdc706028a6152540e3738facae)
REM ## AIRSS Version 0.9.3 July 2022 commit b0220bf5cbf550a3b7
REM compiler GCC version 11.4.0
REM options -cpp -imultiarch x86_64-linux-gnu -mtune=generic -march=x86-64 -g -Og -fpre-include=/usr/include/finclude/math-vector-fortran.h
REM cmdline: airss.pl -pp3 -cluster -max 200 -seed Al 
REM seed 1397511860 -755935596 -529925567 -809400674 -1920871655 169971223 2130840435 -1853080423
REM
REM Al.pp (e4fc5d4412d1ecf009fcd5f92cd21f1b)
REM 
CELL 1.54180   20.00000   20.00000   20.00000   90.00000   90.00000   90.00000
LATT -1
SFAC Al 
Al     1  0.5476041444677  0.5622359080578  0.4524417069891 1.0
Al     1  0.4504459998925  0.4485801793569  0.4378178468352 1.0
Al     1  0.5495539998130  0.5514198200432  0.5609397527119 1.0
Al     1  0.4523958560853  0.4377640920131  0.5463158929081 1.0
Al     1  0.7067559925640  0.5625506064251  0.5792718685673 1.0
Al     1  0.2885374015799  0.4635750130845  0.5311165562673 1.0
Al     1  0.7114625982769  0.5364249862846  0.4676410438462 1.0
Al     1  0.2932440076039  0.4374493921974  0.4194857317829 1.0
Al     1  0.6367256762495  0.4908030632865  0.5363646963513 1.0
Al     1  0.3754950252487  0.5195490901916  0.5719422263280 1.0
Al     1  0.6245049747710  0.4804509094964  0.4268153734006 1.0
Al     1  0.3632743235301  0.5091969359696  0.4623929036129 1.0
Al     1  0.4498183386737  0.6107528363592  0.5800366904025 1.0
Al     1  0.5316082639733  0.3627301907358  0.5314990784369 1.0
Al     1  0.4683917368673  0.6372698090200  0.4672585217095 1.0
Al     1  0.5501816600539  0.3892471636033  0.4187209082358 1.0
Al     1  0.5547442776284  0.4464203168700  0.5993746279168 1.0
Al     1  0.4588370618540  0.5352093797226  0.5053556945868 1.0
Al     1  0.5411629377742  0.4647906193787  0.4934019049051 1.0
Al     1  0.4452557219611  0.5535796831349  0.3993829719448 1.0
Al     1  0.5730777392177  0.6671221354476  0.4374260090432 1.0
Al     1  0.4566632501600  0.3422477059857  0.4545225292706 1.0
Al     1  0.5433367499827  0.6577522935486  0.5442350720905 1.0
Al     1  0.4269222616381  0.3328778645354  0.5613315924495 1.0
Al     1  0.6257639975489  0.6311501333026  0.6111418224523 1.0
Al     1  0.3622058114483  0.4146552574080  0.6032154301320 1.0
Al     1  0.6377941885175  0.5853447425654  0.3955421701807 1.0
Al     1  0.3742360041000  0.3688498673357  0.3876157778476 1.0
Al     1  0.3818935429763  0.4738807015680  0.3570103511699 1.0
Al     1  0.5295869453408  0.4893502238656  0.3735151460694 1.0
Al     1  0.4704130546938  0.5106497768804  0.6252424538254 1.0
Al     1  0.6181064561165  0.5261192990388  0.6417472484902 1.0
Al     1  0.4663071264658  0.3975453135752  0.6452308621534 1.0
Al     1  0.5303960218209  0.5998374293490  0.6558850610553 1.0
Al     1  0.4696039779027  0.4001625730852  0.3428725363906 1.0
Al     1  0.5336928730112  0.6024546878671  0.3535267390701 1.0
Al     1  0.6320575930473  0.6004204006444  0.5064175485510 1.0
Al     1  0.3679424071433  0.3995795987664  0.4923400520195 1.0
END
