TITL Al-10352-5214-166 0.0000000000 8000.0000000000 -162.1201401398 0 0  38 (C3) n - 1
REM
REM Run started: at Wed Oct 4 17:04:50 BST 2023 in /home/michal/install/eddp/airss/examples/1.4
REM pp3 from code version ## 0.9.3 July 2022 commit b0220bf5cbf550a3b7
REM
REM
REM
REM Total runtime: s
REM
REM
REM ./Al.cell (51dbbcdc706028a6152540e3738facae)
REM ## AIRSS Version 0.9.3 July 2022 commit b0220bf5cbf550a3b7
REM compiler GCC version 11.4.0
REM options -cpp -imultiarch x86_64-linux-gnu -mtune=generic -march=x86-64 -g -Og -fpre-include=/usr/include/finclude/math-vector-fortran.h
REM cmdline: airss.pl -pp3 -cluster -max 200 -seed Al 
REM seed -939739741 -930896777 1880393949 -1912705144 -815954845 -2036973264 1945281638 237384375
REM
REM Al.pp (e4fc5d4412d1ecf009fcd5f92cd21f1b)
REM 
CELL 1.54180   20.00000   20.00000   20.00000   90.00000   90.00000   90.00000
LATT -1
SFAC Al 
Al     1  0.4821765645517  0.4360188339099  0.6211064739026 1.0
Al     1  0.5624965603021  0.5106666063755  0.6211059569690 1.0
Al     1  0.4576898184670  0.5429019001499  0.6211057539678 1.0
Al     1  0.5608362935816  0.3943877799563  0.3983866190070 1.0
Al     1  0.5592206240720  0.5996034549229  0.3983868457480 1.0
Al     1  0.3823062079055  0.4955962655881  0.3983870163097 1.0
Al     1  0.5669358962725  0.6475262888847  0.5011790502599 1.0
Al     1  0.3369459747023  0.4783165578783  0.5011791676917 1.0
Al     1  0.5984810268724  0.3637454444101  0.5011789564463 1.0
Al     1  0.4942627812225  0.3401665379837  0.4662633186162 1.0
Al     1  0.6394644467339  0.5690595457196  0.4662631710704 1.0
Al     1  0.3686359267970  0.5803614463125  0.4662632149800 1.0
Al     1  0.4068143751701  0.3541248599980  0.6266922808910 1.0
Al     1  0.6711000071206  0.4863482848088  0.6266921397717 1.0
Al     1  0.4244485559643  0.6491144736316  0.6266921937040 1.0
Al     1  0.6582633858772  0.4343051949991  0.4398849333922 1.0
Al     1  0.4759380878553  0.6640193679538  0.4398851356038 1.0
Al     1  0.3681618836938  0.3912636147801  0.4398853450889 1.0
Al     1  0.4515053519531  0.6096803643802  0.5299518733926 1.0
Al     1  0.4274370669074  0.3972740407833  0.5299521067578 1.0
Al     1  0.6234203534336  0.4826332427692  0.5299519622390 1.0
Al     1  0.4669541957915  0.4415583000180  0.4356204399997 1.0
Al     1  0.5653104906017  0.4947138902568  0.4356204875643 1.0
Al     1  0.4700982019994  0.5533154283902  0.4356202078079 1.0
Al     1  0.5374028241862  0.5476102792483  0.5235290394786 1.0
Al     1  0.4382422921431  0.5026985727606  0.5235287905152 1.0
Al     1  0.5267172229872  0.4392791592977  0.5235294368267 1.0
Al     1  0.3604732336896  0.5658161132631  0.5747193177619 1.0
Al     1  0.5109407313957  0.3403700527549  0.5747193931554 1.0
Al     1  0.6309489725086  0.5834015186490  0.5747192351162 1.0
Al     1  0.3766424290691  0.4611097789033  0.6050957757091 1.0
Al     1  0.5935345650087  0.4067259644497  0.6050958814209 1.0
Al     1  0.5321861223427  0.6217519070377  0.6050957396190 1.0
Al     1  0.6915322012690  0.4013456567643  0.5493258517621 1.0
Al     1  0.4878471421904  0.7093105393056  0.5493258092926 1.0
Al     1  0.3229839313405  0.3789315900339  0.5493259672417 1.0
Al     1  0.5007877437655  0.4965290437228  0.3476474662734 1.0
Al     1  0.5007880102552  0.4965291989487  0.2369603446461 1.0
END
