TITL Al-10352-5214-169 0.0000000000 8000.0000000000 -168.7098739444 0 0  38 (C1) n - 1
REM
REM Run started: at Wed Oct 4 17:04:56 BST 2023 in /home/michal/install/eddp/airss/examples/1.4
REM pp3 from code version ## 0.9.3 July 2022 commit b0220bf5cbf550a3b7
REM
REM
REM
REM Total runtime: s
REM
REM
REM ./Al.cell (51dbbcdc706028a6152540e3738facae)
REM ## AIRSS Version 0.9.3 July 2022 commit b0220bf5cbf550a3b7
REM compiler GCC version 11.4.0
REM options -cpp -imultiarch x86_64-linux-gnu -mtune=generic -march=x86-64 -g -Og -fpre-include=/usr/include/finclude/math-vector-fortran.h
REM cmdline: airss.pl -pp3 -cluster -max 200 -seed Al 
REM seed 1737585984 1179726676 1903998239 -344113279 519343659 1170652085 -1195875708 -1943651421
REM
REM Al.pp (e4fc5d4412d1ecf009fcd5f92cd21f1b)
REM 
CELL 1.54180   20.00000   20.00000   20.00000   90.00000   90.00000   90.00000
LATT -1
SFAC Al 
Al     1  0.3926925432715  0.3751078232195  0.4852771994991 1.0
Al     1  0.4991783395631  0.6248996349621  0.4069058170484 1.0
Al     1  0.6103492194794  0.3701942941003  0.5110480858634 1.0
Al     1  0.4173264978284  0.6021261457367  0.6068294293541 1.0
Al     1  0.3354051590803  0.5399445799491  0.3607367777509 1.0
Al     1  0.6142204041858  0.4790205693891  0.3501429127932 1.0
Al     1  0.6753486276028  0.5427342041378  0.6216918898981 1.0
Al     1  0.3940879069546  0.4967565384811  0.6352719076806 1.0
Al     1  0.6033220570380  0.5172074871351  0.4534481421998 1.0
Al     1  0.5871630758890  0.4732104287480  0.6292679219334 1.0
Al     1  0.4074768378384  0.5244765233501  0.5291747579022 1.0
Al     1  0.4197550287593  0.4648255736816  0.3592742939358 1.0
Al     1  0.5469254514711  0.4579525008218  0.5268509532631 1.0
Al     1  0.4945196208519  0.5247776491069  0.5944400392959 1.0
Al     1  0.4609347330760  0.4574494234468  0.4613304633762 1.0
Al     1  0.5060351822468  0.5526343807630  0.4901383736698 1.0
Al     1  0.4286658137781  0.6305243488518  0.4995231811892 1.0
Al     1  0.4611511577896  0.3692841672475  0.3962624789815 1.0
Al     1  0.5874883293477  0.6256489040801  0.4746432048485 1.0
Al     1  0.5416589207428  0.3770588489047  0.6004065748721 1.0
Al     1  0.5916074347934  0.5536626134626  0.5553348422938 1.0
Al     1  0.4482916112020  0.4285674131051  0.5667896685531 1.0
Al     1  0.4206439192718  0.5524565606932  0.4248573748146 1.0
Al     1  0.5573473006562  0.4197300780623  0.4247852035067 1.0
Al     1  0.4438143612291  0.5669295028219  0.3202690772585 1.0
Al     1  0.6673893982262  0.4302414588394  0.4364943572024 1.0
Al     1  0.5682729028602  0.5798360292187  0.6573379029442 1.0
Al     1  0.3385160609151  0.4435249250981  0.5544461134491 1.0
Al     1  0.4875388240938  0.4462333291595  0.6697969565087 1.0
Al     1  0.3276371567951  0.5769575296164  0.4745906980146 1.0
Al     1  0.5177892039512  0.4290842281940  0.3212687646957 1.0
Al     1  0.6865602059494  0.5683231002268  0.5059886309076 1.0
Al     1  0.6557509600620  0.4664343510441  0.5408654840094 1.0
Al     1  0.4674803658941  0.5543502795479  0.6959049080940 1.0
Al     1  0.3518658348481  0.4705368884023  0.4477040748899 1.0
Al     1  0.5166177721975  0.5164871965995  0.3870968464921 1.0
Al     1  0.5169355484127  0.6309687865927  0.5674618955971 1.0
Al     1  0.5012305318476  0.3598417032025  0.4987826954136 1.0
END
