TITL Al-10352-5214-140 0.0000000000 8000.0000000000 -156.5782673033 0 0  38 (C5) n - 1
REM
REM Run started: at Wed Oct 4 17:03:55 BST 2023 in /home/michal/install/eddp/airss/examples/1.4
REM pp3 from code version ## 0.9.3 July 2022 commit b0220bf5cbf550a3b7
REM
REM
REM
REM Total runtime: s
REM
REM
REM ./Al.cell (51dbbcdc706028a6152540e3738facae)
REM ## AIRSS Version 0.9.3 July 2022 commit b0220bf5cbf550a3b7
REM compiler GCC version 11.4.0
REM options -cpp -imultiarch x86_64-linux-gnu -mtune=generic -march=x86-64 -g -Og -fpre-include=/usr/include/finclude/math-vector-fortran.h
REM cmdline: airss.pl -pp3 -cluster -max 200 -seed Al 
REM seed -971405753 566558401 -1238281611 1781507768 -2001781204 1610226656 1075592290 -1938776053
REM
REM Al.pp (e4fc5d4412d1ecf009fcd5f92cd21f1b)
REM 
CELL 1.54180   20.00000   20.00000   20.00000   90.00000   90.00000   90.00000
LATT -1
SFAC Al 
Al     1  0.3161036765096  0.5261535208312  0.4088497856207 1.0
Al     1  0.3161038774388  0.5933995638017  0.4972950153328 1.0
Al     1  0.3161050473696  0.5300632683566  0.5885809950137 1.0
Al     1  0.3161055798200  0.4236731202592  0.5565533984922 1.0
Al     1  0.3161047334105  0.4212569071796  0.4454733644699 1.0
Al     1  0.5513338587181  0.3556732343789  0.6242089025933 1.0
Al     1  0.5513328002891  0.3358992432038  0.4017055116285 1.0
Al     1  0.5513312777183  0.5414020828727  0.3141421237170 1.0
Al     1  0.5513313912031  0.6881835773338  0.4825282863657 1.0
Al     1  0.5513329909277  0.5733969289814  0.6741599700555 1.0
Al     1  0.4563354404779  0.3285715674622  0.5734119568741 1.0
Al     1  0.4563344665145  0.3758359812114  0.3602334177765 1.0
Al     1  0.4563333250401  0.5931858902382  0.3393096794700 1.0
Al     1  0.4563335773156  0.6802501690386  0.5395549087637 1.0
Al     1  0.4563348814525  0.5167107445693  0.6842378601374 1.0
Al     1  0.6091476482855  0.4173528248207  0.4500681130269 1.0
Al     1  0.6091469760189  0.5205769800534  0.4065535018907 1.0
Al     1  0.6091469566374  0.5938597787530  0.4912788408896 1.0
Al     1  0.6091476178712  0.5359268331736  0.5871563805667 1.0
Al     1  0.6091480439730  0.4268396704910  0.5616867614995 1.0
Al     1  0.4081228219561  0.5837250638993  0.5579777199624 1.0
Al     1  0.4081238702939  0.4693605635532  0.5981308705804 1.0
Al     1  0.4081237773888  0.3958325232831  0.5017715058728 1.0
Al     1  0.4081226708526  0.4647541005791  0.4020659858560 1.0
Al     1  0.4081220805661  0.5808775085060  0.4368030828137 1.0
Al     1  0.4987639627991  0.4204757427394  0.4509287937948 1.0
Al     1  0.4987631827876  0.5207234033131  0.4097903012735 1.0
Al     1  0.4987631478434  0.5908266771616  0.4924190231392 1.0
Al     1  0.4987639109272  0.5339051711251  0.5846248675277 1.0
Al     1  0.4987644115026  0.4286225148803  0.5589824658414 1.0
Al     1  0.5504716019854  0.4387547088467  0.3567817898346 1.0
Al     1  0.5504709918971  0.6159110167900  0.3980813545736 1.0
Al     1  0.5504714034303  0.6313772266324  0.5793291648337 1.0
Al     1  0.5504722700730  0.4637796094459  0.6500472252136 1.0
Al     1  0.5504724014787  0.3447321541336  0.5125053485549 1.0
Al     1  0.6667387740405  0.4989115156781  0.4993484407640 1.0
Al     1  0.3763671997678  0.4989096908154  0.4993502355119 1.0
Al     1  0.5555944534185  0.4989110216074  0.4993488498675 1.0
END
