TITL Al-10352-5214-39 0.0000000000 8000.0000000000 -163.6399494151 0 0  38 (C2) n - 1
REM
REM Run started: at Wed Oct 4 17:00:32 BST 2023 in /home/michal/install/eddp/airss/examples/1.4
REM pp3 from code version ## 0.9.3 July 2022 commit b0220bf5cbf550a3b7
REM
REM
REM
REM Total runtime: s
REM
REM
REM ./Al.cell (51dbbcdc706028a6152540e3738facae)
REM ## AIRSS Version 0.9.3 July 2022 commit b0220bf5cbf550a3b7
REM compiler GCC version 11.4.0
REM options -cpp -imultiarch x86_64-linux-gnu -mtune=generic -march=x86-64 -g -Og -fpre-include=/usr/include/finclude/math-vector-fortran.h
REM cmdline: airss.pl -pp3 -cluster -max 200 -seed Al 
REM seed -1411249243 1286305594 -620241729 -2021777473 -210696282 1686557369 636108883 1492730175
REM
REM Al.pp (e4fc5d4412d1ecf009fcd5f92cd21f1b)
REM 
CELL 1.54180   20.00000   20.00000   20.00000   90.00000   90.00000   90.00000
LATT -1
SFAC Al 
Al     1  0.5134658239174  0.3753589735388  0.6497337232643 1.0
Al     1  0.4865341760882  0.3753589735394  0.3502662767460 1.0
Al     1  0.4297723121453  0.6545672087840  0.6223275378612 1.0
Al     1  0.5702276878580  0.6545672087891  0.3776724621487 1.0
Al     1  0.3920929004529  0.5299491282505  0.3846360557597 1.0
Al     1  0.6079070995416  0.5299491282415  0.6153639442180 1.0
Al     1  0.3917002714225  0.4300424300245  0.3399046506641 1.0
Al     1  0.6082997285830  0.4300424300243  0.6600953493214 1.0
Al     1  0.3435092217764  0.5452091700414  0.4839940347179 1.0
Al     1  0.6564907782294  0.5452091700423  0.5160059652707 1.0
Al     1  0.3682425897284  0.4447964304340  0.4473637632836 1.0
Al     1  0.6317574102872  0.4447964304259  0.5526362367000 1.0
Al     1  0.4809019350098  0.4331536669441  0.4446868986946 1.0
Al     1  0.5190980649970  0.4331536669469  0.5553131013143 1.0
Al     1  0.4808224799437  0.5459971581641  0.4468917789793 1.0
Al     1  0.5191775200452  0.5459971581654  0.5531082210224 1.0
Al     1  0.5144356837318  0.6593963036176  0.5526219790648 1.0
Al     1  0.4855643162678  0.6593963036188  0.4473780209417 1.0
Al     1  0.5049431179502  0.3216324446108  0.5540829641827 1.0
Al     1  0.4950568820362  0.3216324446035  0.4459170358263 1.0
Al     1  0.4745830128466  0.5998657764062  0.3536991595599 1.0
Al     1  0.5254169871591  0.5998657764022  0.6463008404433 1.0
Al     1  0.4857902344306  0.4874356320524  0.3497262589891 1.0
Al     1  0.5142097655702  0.4874356320525  0.6502737410196 1.0
Al     1  0.4249015281704  0.4316596687743  0.6154428983583 1.0
Al     1  0.5750984718353  0.4316596687815  0.3845571016445 1.0
Al     1  0.4280600420102  0.5448211284079  0.6180955080204 1.0
Al     1  0.5719399579878  0.5448211284123  0.3819044919856 1.0
Al     1  0.5779332824065  0.3793267364722  0.4825563107686 1.0
Al     1  0.4220667175821  0.3793267364730  0.5174436892282 1.0
Al     1  0.5724481629099  0.6018402101330  0.4762887664266 1.0
Al     1  0.4275518370850  0.6018402101348  0.5237112335792 1.0
Al     1  0.3850806132832  0.6296114386607  0.4243048735454 1.0
Al     1  0.6149193867200  0.6296114386590  0.5756951264535 1.0
Al     1  0.3963570652109  0.3466919113265  0.4118646350430 1.0
Al     1  0.6036429347834  0.3466919113257  0.5881353649481 1.0
Al     1  0.4304570805771  0.4900920833577  0.5237493484963 1.0
Al     1  0.5695429194199  0.4900920833615  0.4762506515093 1.0
END
