TITL Al-10352-5214-155 0.0000000000 8000.0000000000 -169.8185174627 0 0  38 (C5) n - 1
REM
REM Run started: at Wed Oct 4 17:04:26 BST 2023 in /home/michal/install/eddp/airss/examples/1.4
REM pp3 from code version ## 0.9.3 July 2022 commit b0220bf5cbf550a3b7
REM
REM
REM
REM Total runtime: s
REM
REM
REM ./Al.cell (51dbbcdc706028a6152540e3738facae)
REM ## AIRSS Version 0.9.3 July 2022 commit b0220bf5cbf550a3b7
REM compiler GCC version 11.4.0
REM options -cpp -imultiarch x86_64-linux-gnu -mtune=generic -march=x86-64 -g -Og -fpre-include=/usr/include/finclude/math-vector-fortran.h
REM cmdline: airss.pl -pp3 -cluster -max 200 -seed Al 
REM seed -1404044281 -2017468239 1660140293 -1122576105 1140664238 258100099 -726668113 955113572
REM
REM Al.pp (e4fc5d4412d1ecf009fcd5f92cd21f1b)
REM 
CELL 1.54180   20.00000   20.00000   20.00000   90.00000   90.00000   90.00000
LATT -1
SFAC Al 
Al     1  0.5200995897748  0.4371166280085  0.6741628855485 1.0
Al     1  0.3453659184972  0.4371166297642  0.5746079886688 1.0
Al     1  0.3860525778303  0.4371166331322  0.3776622368775 1.0
Al     1  0.5859319877305  0.4371166335845  0.3554979651794 1.0
Al     1  0.6687775972305  0.4371166303478  0.5387454438395 1.0
Al     1  0.5446755664765  0.5095176284032  0.4221886469896 1.0
Al     1  0.5926020553001  0.5095176266086  0.5201168104785 1.0
Al     1  0.5142769372845  0.5095176250711  0.5959590764948 1.0
Al     1  0.4179428631497  0.5095176259284  0.5449040119031 1.0
Al     1  0.4367302491262  0.5095176279861  0.4375079804780 1.0
Al     1  0.5138625461000  0.5810385233727  0.3415266864915 1.0
Al     1  0.6597943930162  0.5810385212179  0.4658859708495 1.0
Al     1  0.5866171059335  0.5810385182740  0.6431045371056 1.0
Al     1  0.3954592083953  0.5810385186567  0.6282723500339 1.0
Al     1  0.3504944176182  0.5810385218096  0.4418869881489 1.0
Al     1  0.5888646937530  0.6186824306431  0.5408766848709 1.0
Al     1  0.4933782168476  0.6186824296825  0.5988197900093 1.0
Al     1  0.4087641050748  0.6186824309453  0.5259121580816 1.0
Al     1  0.4519561850470  0.6186824327041  0.4229096584576 1.0
Al     1  0.5632644701642  0.6186824325189  0.4321582446661 1.0
Al     1  0.3332815994392  0.4787354808428  0.4701218988613 1.0
Al     1  0.4816904952435  0.4787354837677  0.3338813893469 1.0
Al     1  0.6571237905290  0.4787354821059  0.4329260041896 1.0
Al     1  0.6171386336014  0.4787354781921  0.6303794519870 1.0
Al     1  0.4169931526782  0.4787354773618  0.6533677788246 1.0
Al     1  0.4089225423029  0.4054795360652  0.4853858145192 1.0
Al     1  0.4905479844453  0.4054795371351  0.4105370102663 1.0
Al     1  0.5869570761146  0.4054795361516  0.4650378657909 1.0
Al     1  0.5649157305260  0.4054795344851  0.5735700515931 1.0
Al     1  0.4548843369988  0.4054795344347  0.5861457761046 1.0
Al     1  0.4014675529545  0.5534490243943  0.3455415194607 1.0
Al     1  0.6212440964330  0.5534490241361  0.3602326316697 1.0
Al     1  0.6751867055334  0.5534490204419  0.5737923486916 1.0
Al     1  0.4887485279039  0.5534490184216  0.6910884005790 1.0
Al     1  0.3195807881346  0.5534490208355  0.5500216301175 1.0
Al     1  0.5012455343249  0.5661667618723  0.5041353061071 1.0
Al     1  0.5012455343472  0.3458283279942  0.5041353022608 1.0
Al     1  0.5012455341398  0.4564053727029  0.5041353044576 1.0
END
