TITL Al-10352-5214-162 0.0000000000 8000.0000000000 -173.9123084156 0 0  38 (Oh) n - 1
REM
REM Run started: at Wed Oct 4 17:04:41 BST 2023 in /home/michal/install/eddp/airss/examples/1.4
REM pp3 from code version ## 0.9.3 July 2022 commit b0220bf5cbf550a3b7
REM
REM
REM
REM Total runtime: s
REM
REM
REM ./Al.cell (51dbbcdc706028a6152540e3738facae)
REM ## AIRSS Version 0.9.3 July 2022 commit b0220bf5cbf550a3b7
REM compiler GCC version 11.4.0
REM options -cpp -imultiarch x86_64-linux-gnu -mtune=generic -march=x86-64 -g -Og -fpre-include=/usr/include/finclude/math-vector-fortran.h
REM cmdline: airss.pl -pp3 -cluster -max 200 -seed Al 
REM seed -454886725 -227570648 1508325378 -262541067 1862242798 -1885855659 52799752 -1824600671
REM
REM Al.pp (e4fc5d4412d1ecf009fcd5f92cd21f1b)
REM 
CELL 1.54180   20.00000   20.00000   20.00000   90.00000   90.00000   90.00000
LATT -1
SFAC Al 
Al     1  0.5565223865109  0.4481109531918  0.4884484192780 1.0
Al     1  0.4434776134891  0.5518890468082  0.5115515807220 1.0
Al     1  0.5525061144482  0.5571289214496  0.5002948226210 1.0
Al     1  0.4474938855518  0.4428710785504  0.4997051773790 1.0
Al     1  0.6178005751773  0.4971972821715  0.5657301520749 1.0
Al     1  0.3821994248227  0.5028027178285  0.4342698479251 1.0
Al     1  0.6011191536486  0.5133239274974  0.4116672595808 1.0
Al     1  0.3988808463514  0.4866760725026  0.5883327404192 1.0
Al     1  0.6143016918713  0.6071852576343  0.5778130370930 1.0
Al     1  0.3856983081287  0.3928147423657  0.4221869629070 1.0
Al     1  0.5490571585282  0.6674887594377  0.5122202605035 1.0
Al     1  0.4509428414718  0.3325112405623  0.4877797394965 1.0
Al     1  0.5043085474654  0.6013859662372  0.5889247186691 1.0
Al     1  0.4956914525346  0.3986140337628  0.4110752813309 1.0
Al     1  0.6056833894855  0.4033871669487  0.3994743459840 1.0
Al     1  0.3943166105145  0.5966128330513  0.6005256540160 1.0
Al     1  0.4387972972662  0.6621896902636  0.5236041489651 1.0
Al     1  0.5612027027338  0.3378103097365  0.4763958510349 1.0
Al     1  0.4916921595994  0.5080315460636  0.4232721216008 1.0
Al     1  0.5083078404006  0.4919684539365  0.5767278783992 1.0
Al     1  0.5360790577210  0.5736991288679  0.3454840861296 1.0
Al     1  0.4639209422790  0.4263008711321  0.6545159138705 1.0
Al     1  0.4598790305149  0.5360154972463  0.6664380302372 1.0
Al     1  0.5401209694851  0.4639845027537  0.3335619697628 1.0
Al     1  0.3331140383533  0.5472017388798  0.5230107357146 1.0
Al     1  0.6668859616467  0.4527982611202  0.4769892642855 1.0
Al     1  0.3371756540572  0.4369525287269  0.5110305420489 1.0
Al     1  0.6628243459428  0.5630474712731  0.4889694579511 1.0
Al     1  0.5975798332890  0.6233509956074  0.4233766816065 1.0
Al     1  0.4024201667110  0.3766490043926  0.5766233183935 1.0
Al     1  0.6224052565750  0.3872214207352  0.5539107735928 1.0
Al     1  0.3775947434250  0.6127785792648  0.4460892264072 1.0
Al     1  0.5123728734581  0.3824873881677  0.5651381733039 1.0
Al     1  0.4876271265419  0.6175126118323  0.4348618266961 1.0
Al     1  0.4303957443183  0.4587111182594  0.3448906724067 1.0
Al     1  0.5696042556817  0.5412888817407  0.6551093275933 1.0
Al     1  0.4263538292938  0.5684257476002  0.3568127619621 1.0
Al     1  0.5736461707062  0.4315742523998  0.6431872380379 1.0
END
