TITL Al-10352-5214-106 0.0000000000 8000.0000000000 -141.9610765110 0 0  38 (Cs) n - 1
REM
REM Run started: at Wed Oct 4 17:02:48 BST 2023 in /home/michal/install/eddp/airss/examples/1.4
REM pp3 from code version ## 0.9.3 July 2022 commit b0220bf5cbf550a3b7
REM
REM
REM
REM Total runtime: s
REM
REM
REM ./Al.cell (51dbbcdc706028a6152540e3738facae)
REM ## AIRSS Version 0.9.3 July 2022 commit b0220bf5cbf550a3b7
REM compiler GCC version 11.4.0
REM options -cpp -imultiarch x86_64-linux-gnu -mtune=generic -march=x86-64 -g -Og -fpre-include=/usr/include/finclude/math-vector-fortran.h
REM cmdline: airss.pl -pp3 -cluster -max 200 -seed Al 
REM seed 2032155472 -1052361921 290915271 621622801 1104196207 -16001975 1748059416 1795672372
REM
REM Al.pp (e4fc5d4412d1ecf009fcd5f92cd21f1b)
REM 
CELL 1.54180   20.00000   20.00000   20.00000   90.00000   90.00000   90.00000
LATT -1
SFAC Al 
Al     1  0.4460562662728  0.5438658801921  0.4185568061170 1.0
Al     1  0.5539437355900  0.5438660006774  0.4185568255972 1.0
Al     1  0.5532448436509  0.4917106975959  0.5150672570761 1.0
Al     1  0.4467551812894  0.4917104367351  0.5150671642548 1.0
Al     1  0.3558702102962  0.5470235294701  0.4850183130953 1.0
Al     1  0.6441298184392  0.5470235701585  0.4850184200337 1.0
Al     1  0.3540420105094  0.3771554411714  0.3941582867413 1.0
Al     1  0.6459577886694  0.3771554923874  0.3941582291450 1.0
Al     1  0.5534132573986  0.6014314829224  0.5122264021586 1.0
Al     1  0.4465868120655  0.6014311789235  0.5122265543153 1.0
Al     1  0.4460405770447  0.4344286310206  0.4213747303864 1.0
Al     1  0.5539593189634  0.4344287779356  0.4213749093162 1.0
Al     1  0.4447706782006  0.2726547224803  0.5232000234317 1.0
Al     1  0.5552292434357  0.2726549108921  0.5232002245327 1.0
Al     1  0.4451523488438  0.6585620664016  0.6067778394457 1.0
Al     1  0.5548468437677  0.6585625749949  0.6067775453693 1.0
Al     1  0.4457056800827  0.6540213424293  0.4157216036392 1.0
Al     1  0.5542942368309  0.6540214606719  0.4157213689282 1.0
Al     1  0.3556481180060  0.4354798960465  0.4878400175322 1.0
Al     1  0.6443518893953  0.4354799573785  0.4878399382357 1.0
Al     1  0.4462838248702  0.3821681640264  0.5180763076098 1.0
Al     1  0.5537162755310  0.3821683953176  0.5180765899484 1.0
Al     1  0.4458253251855  0.4380789588497  0.6115234768474 1.0
Al     1  0.5541742129865  0.4380794803898  0.6115236175156 1.0
Al     1  0.5543772486836  0.3239945085713  0.4249016107221 1.0
Al     1  0.4456225443668  0.3239943076980  0.4249013555242 1.0
Al     1  0.3543904343664  0.4884985181664  0.3903134164830 1.0
Al     1  0.6456094972931  0.4884985944441  0.3903134187835 1.0
Al     1  0.6460356262592  0.5997527564356  0.3881396693730 1.0
Al     1  0.3539643901944  0.5997526707239  0.3881395429256 1.0
Al     1  0.3552745730531  0.4937068469115  0.5812866505431 1.0
Al     1  0.6447255144766  0.4937065538742  0.5812866818245 1.0
Al     1  0.5548339778613  0.7115993959819  0.5097371393732 1.0
Al     1  0.4451669201740  0.7115990701624  0.5097375150626 1.0
Al     1  0.5536052306516  0.5489752028523  0.6082175269580 1.0
Al     1  0.4463954389894  0.5489746696152  0.6082175550069 1.0
Al     1  0.3902706600379  0.4968919136075  0.6878626077413 1.0
Al     1  0.6097294462672  0.4968919418873  0.6878626584063 1.0
END
