TITL AB-2167-6052-21 -0.0000000392 66.0877721430 -83.7384348840 0 0  10 (Cc) n - 1
REM
REM Run started: at Wed Oct 4 21:21:10 BST 2023 in /home/michal/install/eddp/airss/examples/1.8
REM pp3 from code version ## 0.9.3 July 2022 commit b0220bf5cbf550a3b7
REM
REM
REM
REM Total runtime: s
REM
REM
REM ./AB.cell (7fd15283e6764e203a7361627cca9824)
REM ## AIRSS Version 0.9.3 July 2022 commit b0220bf5cbf550a3b7
REM compiler GCC version 11.4.0
REM options -cpp -imultiarch x86_64-linux-gnu -mtune=generic -march=x86-64 -g -Og -fpre-include=/usr/include/finclude/math-vector-fortran.h
REM cmdline: airss.pl -pp3 -max 100 -seed AB 
REM seed 999820646 -1849189276 -39065562 -1250206158 -9103260 1857116620 620783639 251055695
REM
REM AB.pp (7d902dab443bc42eb61d9603b40dffe3)
REM 
CELL 1.54180    4.15177    4.21961    4.21966  112.39801   81.84256   81.84859
LATT -1
SFAC A  B  
A      1  0.4713104835687  0.8678303936477  0.5541678508175 1.0
A      1  0.9361309723505  0.7453238514678  0.1542372498057 1.0
A      1  0.4642021113281  0.7684042543520  0.0202020810977 1.0
A      1  0.1213713649976  0.2006930134218  0.0401892771833 1.0
A      1  0.9712857334957  0.7590644149922  0.6629432194593 1.0
A      1  0.6213686535685  0.2451064714701  0.9958202303869 1.0
A      1  0.4360969591273  0.3591579283709  0.5404798566153 1.0
A      1  0.9641840149329  0.2250722699769  0.5634821648772 1.0
B      2  0.7780101987545  0.4830703447888  0.3599834715790 1.0
B      2  0.2780060078762  0.5648707575118  0.2781945981780 1.0
END
