TITL AB-2167-6052-41 -0.0000000939 66.8079359261 -81.6300279928 0 0  10 (Cm) n - 1
REM
REM Run started: at Wed Oct 4 21:21:30 BST 2023 in /home/michal/install/eddp/airss/examples/1.8
REM pp3 from code version ## 0.9.3 July 2022 commit b0220bf5cbf550a3b7
REM
REM
REM
REM Total runtime: s
REM
REM
REM ./AB.cell (7fd15283e6764e203a7361627cca9824)
REM ## AIRSS Version 0.9.3 July 2022 commit b0220bf5cbf550a3b7
REM compiler GCC version 11.4.0
REM options -cpp -imultiarch x86_64-linux-gnu -mtune=generic -march=x86-64 -g -Og -fpre-include=/usr/include/finclude/math-vector-fortran.h
REM cmdline: airss.pl -pp3 -max 100 -seed AB 
REM seed -1096117032 -908311134 -1553800534 -434941270 -1822047287 694658857 723987724 1460726678
REM
REM AB.pp (7d902dab443bc42eb61d9603b40dffe3)
REM 
CELL 1.54180    2.15780    5.65003    5.96111   69.53848   79.57257   90.00001
LATT -1
SFAC A  B  
A      1  0.1865839404127  0.1525111397022  0.2786388296567 1.0
A      1  0.7901963302569  0.5130907520183  0.0714140177771 1.0
A      1  0.3770752262702  0.2891756380129  0.8976561269498 1.0
A      1  0.0121386226598  0.1877195421087  0.6275293485166 1.0
A      1  0.5343729604973  0.8852242666863  0.5830607015242 1.0
A      1  0.3540429072955  0.8915613128322  0.9437205963071 1.0
A      1  0.6830297282777  0.7455457895141  0.2857470535797 1.0
A      1  0.0199979827039  0.5575941083299  0.6118105627688 1.0
B      2  0.1566835008004  0.4635681344091  0.3384396635804 1.0
B      2  0.7841316008257  0.0562767163863  0.0835433993396 1.0
END
