TITL AB-2167-6052-88 0.0000007243 63.3127545752 -87.2378321539 0 0  10 (P-1) n - 1
REM
REM Run started: at Wed Oct 4 21:22:23 BST 2023 in /home/michal/install/eddp/airss/examples/1.8
REM pp3 from code version ## 0.9.3 July 2022 commit b0220bf5cbf550a3b7
REM
REM
REM
REM Total runtime: s
REM
REM
REM ./AB.cell (7fd15283e6764e203a7361627cca9824)
REM ## AIRSS Version 0.9.3 July 2022 commit b0220bf5cbf550a3b7
REM compiler GCC version 11.4.0
REM options -cpp -imultiarch x86_64-linux-gnu -mtune=generic -march=x86-64 -g -Og -fpre-include=/usr/include/finclude/math-vector-fortran.h
REM cmdline: airss.pl -pp3 -max 100 -seed AB 
REM seed -425882848 -2051690071 1273401392 1260251328 212100008 -1620336244 1504675684 1313857448
REM
REM AB.pp (7d902dab443bc42eb61d9603b40dffe3)
REM 
CELL 1.54180    3.54220    3.86395    5.26189   84.96018   75.16954  111.74605
LATT -1
SFAC A  B  
A      1  0.1090078903103  0.1465103383326  0.0278598772038 1.0
A      1  0.1122910387025  0.6135899516036  0.7371656577902 1.0
A      1  0.7861606630686  0.7948591676527  0.5095710392370 1.0
A      1  0.2283331095105  0.3817849477258  0.3885457101968 1.0
A      1  0.4487968904924  0.9698296122737  0.2909664298025 1.0
A      1  0.5648389612972  0.7380246083956  0.9423464822106 1.0
A      1  0.8909693369306  0.5567553923454  0.1699411007632 1.0
A      1  0.5681221096875  0.2051042216671  0.6516522627960 1.0
B      2  0.0206754031311  0.1022379947754  0.7115872148405 1.0
B      2  0.6564545968693  0.2493765652281  0.9679249251593 1.0
END
