TITL AB-2167-6052-95 0.0000001589 63.3127312734 -87.2378321542 0 0  10 (P-1) n - 1
REM
REM Run started: at Wed Oct 4 21:22:30 BST 2023 in /home/michal/install/eddp/airss/examples/1.8
REM pp3 from code version ## 0.9.3 July 2022 commit b0220bf5cbf550a3b7
REM
REM
REM
REM Total runtime: s
REM
REM
REM ./AB.cell (7fd15283e6764e203a7361627cca9824)
REM ## AIRSS Version 0.9.3 July 2022 commit b0220bf5cbf550a3b7
REM compiler GCC version 11.4.0
REM options -cpp -imultiarch x86_64-linux-gnu -mtune=generic -march=x86-64 -g -Og -fpre-include=/usr/include/finclude/math-vector-fortran.h
REM cmdline: airss.pl -pp3 -max 100 -seed AB 
REM seed 1083459581 -1187003131 300719433 -296540413 1281024758 1608062268 934447358 -1856280201
REM
REM AB.pp (7d902dab443bc42eb61d9603b40dffe3)
REM 
CELL 1.54180    3.86397    3.54221    5.26187  104.83042   84.95993   68.25365
LATT -1
SFAC A  B  
A      1  0.3133232545078  0.6392725520509  0.2135663024463 1.0
A      1  0.8462415023531  0.6425573923281  0.5042626637826 1.0
A      1  0.2547281492215  0.0983896637731  0.5897761779759 1.0
A      1  0.4900040594314  0.9790596304575  0.9504599240223 1.0
A      1  0.6649724692919  0.3164254636163  0.7318567023471 1.0
A      1  0.0780473410699  0.7586025917882  0.8528825554180 1.0
A      1  0.7218098972070  0.0951048294736  0.2990798145418 1.0
A      1  0.9030789280887  0.4212367538018  0.0714857796765 1.0
B      2  0.3575950729213  0.5509423368340  0.5298398011881 1.0
B      2  0.2104563259074  0.1867198858764  0.2735026786014 1.0
END
