TITL AB-2167-6052-20 0.0000004913 65.6815845053 -83.2694631299 0 0  10 (Cm) n - 1
REM
REM Run started: at Wed Oct 4 21:21:09 BST 2023 in /home/michal/install/eddp/airss/examples/1.8
REM pp3 from code version ## 0.9.3 July 2022 commit b0220bf5cbf550a3b7
REM
REM
REM
REM Total runtime: s
REM
REM
REM ./AB.cell (7fd15283e6764e203a7361627cca9824)
REM ## AIRSS Version 0.9.3 July 2022 commit b0220bf5cbf550a3b7
REM compiler GCC version 11.4.0
REM options -cpp -imultiarch x86_64-linux-gnu -mtune=generic -march=x86-64 -g -Og -fpre-include=/usr/include/finclude/math-vector-fortran.h
REM cmdline: airss.pl -pp3 -max 100 -seed AB 
REM seed -34247757 -1253564309 2034702502 186549296 1250930944 556792925 1853172718 -265506754
REM
REM AB.pp (7d902dab443bc42eb61d9603b40dffe3)
REM 
CELL 1.54180    2.17326    3.76990    8.37519   88.51355   90.00000   73.24745
LATT -1
SFAC A  B  
A      1  0.4874237392918  0.0198723058789  0.2571262766917 1.0
A      1  0.4844957618712  0.0257281061651  0.0064589674450 1.0
A      1  0.7551932733495  0.4843331994729  0.9143306674787 1.0
A      1  0.7618724488924  0.4709748408801  0.3651741966373 1.0
A      1  0.5896804749101  0.8153587379300  0.7010367161351 1.0
A      1  0.3134997871437  0.3677201154462  0.5903868368504 1.0
A      1  0.2134411971967  0.5678373121195  0.1363971488256 1.0
A      1  0.0379649585258  0.9187898131678  0.4789178962802 1.0
B      2  0.0729216328599  0.8488764495713  0.8643700618046 1.0
B      2  0.3730477259589  0.2486242193682  0.7925954318514 1.0
END
