TITL AB-2167-6052-70 -0.0000001131 65.0276319710 -84.9701590654 0 0  10 (Cm) n - 1
REM
REM Run started: at Wed Oct 4 21:22:02 BST 2023 in /home/michal/install/eddp/airss/examples/1.8
REM pp3 from code version ## 0.9.3 July 2022 commit b0220bf5cbf550a3b7
REM
REM
REM
REM Total runtime: s
REM
REM
REM ./AB.cell (7fd15283e6764e203a7361627cca9824)
REM ## AIRSS Version 0.9.3 July 2022 commit b0220bf5cbf550a3b7
REM compiler GCC version 11.4.0
REM options -cpp -imultiarch x86_64-linux-gnu -mtune=generic -march=x86-64 -g -Og -fpre-include=/usr/include/finclude/math-vector-fortran.h
REM cmdline: airss.pl -pp3 -max 100 -seed AB 
REM seed -884598690 1767672330 -1249389077 -904234035 120707633 -1669196219 1541727508 -1438961047
REM
REM AB.pp (7d902dab443bc42eb61d9603b40dffe3)
REM 
CELL 1.54180    2.16567    4.22857    7.33009   78.50102   81.50491   90.00000
LATT -1
SFAC A  B  
A      1  0.0023679591905  0.5294952792953  0.8443616616197 1.0
A      1  0.3624715992990  0.4505201364756  0.1241543814001 1.0
A      1  0.7563021408304  0.6758559010896  0.3364932983371 1.0
A      1  0.1362321184529  0.3441805216514  0.5766333430986 1.0
A      1  0.9021157612114  0.9061528287121  0.0448660575759 1.0
A      1  0.5333836046105  0.9959535408238  0.7823303707806 1.0
A      1  0.7464955054481  0.1730630994257  0.3561065691047 1.0
A      1  0.1434207136592  0.8385978306197  0.5622561526799 1.0
B      2  0.4478491470722  0.2236386247926  0.9533992858554 1.0
B      2  0.3154311502257  0.9940126371142  0.2182352795481 1.0
END
