TITL AB-2167-6052-23 0.0000000824 63.9522879712 -86.1927463295 0 0  10 (P-1) n - 1
REM
REM Run started: at Wed Oct 4 21:21:12 BST 2023 in /home/michal/install/eddp/airss/examples/1.8
REM pp3 from code version ## 0.9.3 July 2022 commit b0220bf5cbf550a3b7
REM
REM
REM
REM Total runtime: s
REM
REM
REM ./AB.cell (7fd15283e6764e203a7361627cca9824)
REM ## AIRSS Version 0.9.3 July 2022 commit b0220bf5cbf550a3b7
REM compiler GCC version 11.4.0
REM options -cpp -imultiarch x86_64-linux-gnu -mtune=generic -march=x86-64 -g -Og -fpre-include=/usr/include/finclude/math-vector-fortran.h
REM cmdline: airss.pl -pp3 -max 100 -seed AB 
REM seed 1197880374 1875906768 461568710 -1602875216 -542978829 871546159 -1160591501 1734638096
REM
REM AB.pp (7d902dab443bc42eb61d9603b40dffe3)
REM 
CELL 1.54180    3.46595    3.87116    5.47296  110.13072   99.46041   68.18396
LATT -1
SFAC A  B  
A      1  0.4603955932603  0.5849118410669  0.8724337000240 1.0
A      1  0.0710158495351  0.2538230625023  0.7295420557466 1.0
A      1  0.9150572466919  0.3570391589498  0.3463977599481 1.0
A      1  0.9573800911461  0.7420968656829  0.1301602451477 1.0
A      1  0.4180727488158  0.1998541342893  0.0886712148359 1.0
A      1  0.8070107792162  0.8509497647358  0.7582873298760 1.0
A      1  0.5684420609114  0.0910012351624  0.4605441301610 1.0
A      1  0.3044369904375  0.6881279375373  0.4892894042109 1.0
B      2  0.4902109015203  0.6943142812323  0.2100181982251 1.0
B      2  0.8852419384655  0.2476367188410  0.0088132618248 1.0
END
