TITL AB-2167-6052-2 -0.0000000394 63.4131090050 -87.2633155532 0 0  10 (Cm) n - 1
REM
REM Run started: at Wed Oct 4 21:20:50 BST 2023 in /home/michal/install/eddp/airss/examples/1.8
REM pp3 from code version ## 0.9.3 July 2022 commit b0220bf5cbf550a3b7
REM
REM
REM
REM Total runtime: s
REM
REM
REM ./AB.cell (7fd15283e6764e203a7361627cca9824)
REM ## AIRSS Version 0.9.3 July 2022 commit b0220bf5cbf550a3b7
REM compiler GCC version 11.4.0
REM options -cpp -imultiarch x86_64-linux-gnu -mtune=generic -march=x86-64 -g -Og -fpre-include=/usr/include/finclude/math-vector-fortran.h
REM cmdline: airss.pl -pp3 -max 100 -seed AB 
REM seed -1890438065 1120853334 1243791758 1375578846 1349986945 -1728014164 1568036439 -735341914
REM
REM AB.pp (7d902dab443bc42eb61d9603b40dffe3)
REM 
CELL 1.54180    2.17623    4.18147    7.33894   81.98446   81.47353   74.91668
LATT -1
SFAC A  B  
A      1  0.2200722802107  0.2677474701405  0.6259136193557 1.0
A      1  0.1874416838613  0.0563413356778  0.9025809466606 1.0
A      1  0.4821900017932  0.2440241796006  0.1254014670188 1.0
A      1  0.4803340318697  0.5320507321457  0.8410868541247 1.0
A      1  0.2089500658055  0.5734392681821  0.3424662499193 1.0
A      1  0.9174201379938  0.1105515023466  0.3884138714628 1.0
A      1  0.5073931222240  0.7496208879481  0.5693985174745 1.0
A      1  0.7866390921108  0.6877927744348  0.0727346915112 1.0
B      2  0.1123924282267  0.9239627536854  0.1850580401560 1.0
B      2  0.8489209559044  0.8981810958384  0.7377826423164 1.0
END
