TITL AB-2167-6052-6 0.0000002813 63.3127272380 -87.2378321532 0 0  10 (P-1) n - 1
REM
REM Run started: at Wed Oct 4 21:20:54 BST 2023 in /home/michal/install/eddp/airss/examples/1.8
REM pp3 from code version ## 0.9.3 July 2022 commit b0220bf5cbf550a3b7
REM
REM
REM
REM Total runtime: s
REM
REM
REM ./AB.cell (7fd15283e6764e203a7361627cca9824)
REM ## AIRSS Version 0.9.3 July 2022 commit b0220bf5cbf550a3b7
REM compiler GCC version 11.4.0
REM options -cpp -imultiarch x86_64-linux-gnu -mtune=generic -march=x86-64 -g -Og -fpre-include=/usr/include/finclude/math-vector-fortran.h
REM cmdline: airss.pl -pp3 -max 100 -seed AB 
REM seed -1618538818 -324664254 1218821990 2134726625 1284341458 14868956 1309180005 1330783966
REM
REM AB.pp (7d902dab443bc42eb61d9603b40dffe3)
REM 
CELL 1.54180    3.54221    3.86397    5.26186   95.04011  104.83041  111.74642
LATT -1
SFAC A  B  
A      1  0.5287329914499  0.4349698381896  0.4636418260942 1.0
A      1  0.8652346372405  0.7912069461752  0.9098387321942 1.0
A      1  0.4094021546083  0.1996937823590  0.8243252070083 1.0
A      1  0.1913668437162  0.6099379808302  0.6822448076592 1.0
A      1  0.4126872207279  0.6667758137355  0.1150219085105 1.0
A      1  0.8685197096891  0.2582889778425  0.2005354320359 1.0
A      1  0.7491888627428  0.0230129152684  0.5612188115452 1.0
A      1  0.0865550182379  0.8480447825104  0.3426158318107 1.0
B      2  0.3210722951040  0.1554220214702  0.1405988497055 1.0
B      2  0.9568495664836  0.3025607416190  0.8842617934364 1.0
END
