TITL AB-2167-6052-30 -0.0000000254 64.4072906758 -87.0113043868 0 0  10 (P-1) n - 1
REM
REM Run started: at Wed Oct 4 21:21:19 BST 2023 in /home/michal/install/eddp/airss/examples/1.8
REM pp3 from code version ## 0.9.3 July 2022 commit b0220bf5cbf550a3b7
REM
REM
REM
REM Total runtime: s
REM
REM
REM ./AB.cell (7fd15283e6764e203a7361627cca9824)
REM ## AIRSS Version 0.9.3 July 2022 commit b0220bf5cbf550a3b7
REM compiler GCC version 11.4.0
REM options -cpp -imultiarch x86_64-linux-gnu -mtune=generic -march=x86-64 -g -Og -fpre-include=/usr/include/finclude/math-vector-fortran.h
REM cmdline: airss.pl -pp3 -max 100 -seed AB 
REM seed 1479683863 1457109345 153172846 -1964709935 -1934700130 1945038383 1328879651 539166590
REM
REM AB.pp (7d902dab443bc42eb61d9603b40dffe3)
REM 
CELL 1.54180    4.71293    3.74108    4.15528   92.13414  111.35205   71.38847
LATT -1
SFAC A  B  
A      1  0.8415254114023  0.5484095125023  0.0237109324153 1.0
A      1  0.3384148150237  0.7370049328012  0.6493108368179 1.0
A      1  0.3399110024842  0.2690027332415  0.3044631151047 1.0
A      1  0.6846346450815  0.6399663670084  0.4422047230285 1.0
A      1  0.6831384576156  0.1079685668490  0.7870524452853 1.0
A      1  0.1815240481013  0.8285617875981  0.0678046276512 1.0
A      1  0.8522489458758  0.0673701301992  0.3396605695505 1.0
A      1  0.1708005139899  0.3096011699434  0.7518549901447 1.0
B      2  0.5136045040106  0.9396795304007  0.0450951208797 1.0
B      2  0.5094449564152  0.4372917694561  0.0464204391223 1.0
END
