TITL AB-2167-6052-73 0.0000001338 63.4891000679 -86.0478667791 0 0  10 (P21/m) n - 1
REM
REM Run started: at Wed Oct 4 21:22:05 BST 2023 in /home/michal/install/eddp/airss/examples/1.8
REM pp3 from code version ## 0.9.3 July 2022 commit b0220bf5cbf550a3b7
REM
REM
REM
REM Total runtime: s
REM
REM
REM ./AB.cell (7fd15283e6764e203a7361627cca9824)
REM ## AIRSS Version 0.9.3 July 2022 commit b0220bf5cbf550a3b7
REM compiler GCC version 11.4.0
REM options -cpp -imultiarch x86_64-linux-gnu -mtune=generic -march=x86-64 -g -Og -fpre-include=/usr/include/finclude/math-vector-fortran.h
REM cmdline: airss.pl -pp3 -max 100 -seed AB 
REM seed 743897762 1513010219 1061437006 -1754166633 434251765 1655286708 231009535 -2138128947
REM
REM AB.pp (7d902dab443bc42eb61d9603b40dffe3)
REM 
CELL 1.54180    3.28168    4.04417    4.83550   81.61513   90.00004   89.99989
LATT -1
SFAC A  B  
A      1  0.2153410905001  0.5101171430307  0.0509319068713 1.0
A      1  0.2153403133046  0.1233414237871  0.7509287138990 1.0
A      1  0.7153417671284  0.6031431536621  0.3125116654320 1.0
A      1  0.2153410958182  0.9636066195827  0.2112746736521 1.0
A      1  0.7153399543369  0.0860404903513  0.4649651040063 1.0
A      1  0.7153409843266  0.7628779608052  0.8521657078945 1.0
A      1  0.2153421256647  0.6404440880415  0.5984752772320 1.0
A      1  0.7153409897777  0.2163674376346  0.0125084719865 1.0
B      2  0.2153375920176  0.3109984462600  0.3973755670740 1.0
B      2  0.7153444871253  0.4154861368449  0.6660648119523 1.0
END
