TITL AB-2167-6052-72 0.0000002286 62.5559129200 -89.9098307564 0 0  10 (C2/m) n - 1
REM
REM Run started: at Wed Oct 4 21:22:04 BST 2023 in /home/michal/install/eddp/airss/examples/1.8
REM pp3 from code version ## 0.9.3 July 2022 commit b0220bf5cbf550a3b7
REM
REM
REM
REM Total runtime: s
REM
REM
REM ./AB.cell (7fd15283e6764e203a7361627cca9824)
REM ## AIRSS Version 0.9.3 July 2022 commit b0220bf5cbf550a3b7
REM compiler GCC version 11.4.0
REM options -cpp -imultiarch x86_64-linux-gnu -mtune=generic -march=x86-64 -g -Og -fpre-include=/usr/include/finclude/math-vector-fortran.h
REM cmdline: airss.pl -pp3 -max 100 -seed AB 
REM seed 2048442059 -1845071115 -1111694618 1210465517 2058668256 -638402224 -2008993282 -1290419890
REM
REM AB.pp (7d902dab443bc42eb61d9603b40dffe3)
REM 
CELL 1.54180    2.21984    3.83740    7.75821   81.79515   90.00000  106.81232
LATT -1
SFAC A  B  
A      1  0.3026028744234  0.1775983788347  0.5867670479578 1.0
A      1  0.8180273764744  0.2084473829187  0.8148294602534 1.0
A      1  0.5042710473334  0.5809347247078  0.2064534051883 1.0
A      1  0.1009348206879  0.7742622713603  0.9670808991266 1.0
A      1  0.7871783422021  0.1467493144358  0.3587046363565 1.0
A      1  0.8026030340568  0.1775986981288  0.0867670246841 1.0
A      1  0.5604484423444  0.6932895147363  0.7145848481324 1.0
A      1  0.0447573035887  0.6619072370773  0.4589492541111 1.0
B      2  0.1782039020676  0.9288004341782  0.2350743998667 1.0
B      2  0.4270020568213  0.4263967436222  0.9384595243231 1.0
END
