TITL AB-2167-6052-4 -0.0000002423 63.3127626907 -87.2378321521 0 0  10 (P-1) n - 1
REM
REM Run started: at Wed Oct 4 21:20:52 BST 2023 in /home/michal/install/eddp/airss/examples/1.8
REM pp3 from code version ## 0.9.3 July 2022 commit b0220bf5cbf550a3b7
REM
REM
REM
REM Total runtime: s
REM
REM
REM ./AB.cell (7fd15283e6764e203a7361627cca9824)
REM ## AIRSS Version 0.9.3 July 2022 commit b0220bf5cbf550a3b7
REM compiler GCC version 11.4.0
REM options -cpp -imultiarch x86_64-linux-gnu -mtune=generic -march=x86-64 -g -Og -fpre-include=/usr/include/finclude/math-vector-fortran.h
REM cmdline: airss.pl -pp3 -max 100 -seed AB 
REM seed 1334726872 -570412056 983014960 -1238805352 -339624476 443009309 1754096236 -1009632448
REM
REM AB.pp (7d902dab443bc42eb61d9603b40dffe3)
REM 
CELL 1.54180    3.54220    3.86395    5.26190   95.03978   75.16954   68.25399
LATT -1
SFAC A  B  
A      1  0.9673013418843  0.2312277467268  0.7192425869875 1.0
A      1  0.7492624684557  0.8209825600310  0.8613238940035 1.0
A      1  0.0721097826371  0.4693310167139  0.3796124658250 1.0
A      1  0.7459795752567  0.2880618270086  0.1520178105209 1.0
A      1  0.2934315593392  0.4124969224220  0.9468372502458 1.0
A      1  0.6299379248131  0.0562569469950  0.5006377647366 1.0
A      1  0.2901486491626  0.8795761928339  0.2375311678723 1.0
A      1  0.4094731884729  0.6443018216955  0.5982173003200 1.0
B      2  0.8375952540130  0.7767101204137  0.1775964263967 1.0
B      2  0.2018158559653  0.9238486451596  0.9212586330917 1.0
END
