TITL Al-4304-1946-1 0.0000000000 8000.0000000000 -38.7095559143 0 0  13 (C1) n - 1
REM
REM Run started: at Wed Oct 4 09:52:33 BST 2023 in /home/michal/installPacks/eddp/airss/examples/1.2
REM pp3 from code version ## 0.9.3 July 2022 commit b0220bf5cbf550a3b7
REM
REM
REM
REM Total runtime: s
REM
REM
REM ./Al.cell (8f0fc5c9d882ed20c27978dd052da9d4)
REM ## AIRSS Version 0.9.3 July 2022 commit b0220bf5cbf550a3b7
REM compiler GCC version 11.4.0
REM options -cpp -imultiarch x86_64-linux-gnu -mtune=generic -march=x86-64 -g -Og -fpre-include=/usr/include/finclude/math-vector-fortran.h
REM cmdline: airss.pl -pp3 -cluster -max 20 -seed Al 
REM seed -505869261 -199472106 1346208691 1478134720 1925553047 354982321 202121804 729605177
REM
REM Al.pp (e4fc5d4412d1ecf009fcd5f92cd21f1b)
REM 
CELL 1.54180   20.00000   20.00000   20.00000   90.00000   90.00000   90.00000
LATT -1
SFAC Al 
Al     1  0.5068880693075  0.6533043138247  0.4448451226114 1.0
Al     1  0.5216275142538  0.5672087109950  0.5131480554939 1.0
Al     1  0.4501812689289  0.5587613683877  0.4269881101196 1.0
Al     1  0.5940773703921  0.4186579011594  0.4250084852969 1.0
Al     1  0.5128363197380  0.4771852425230  0.5771454496023 1.0
Al     1  0.5046282860484  0.4700642235112  0.4642941202877 1.0
Al     1  0.6025829718970  0.4904402278074  0.5115150842234 1.0
Al     1  0.4955986127139  0.3637965817826  0.4357217408623 1.0
Al     1  0.4217535468134  0.5122435721367  0.5240511452863 1.0
Al     1  0.5560461626299  0.3896323948077  0.5255941793783 1.0
Al     1  0.4637349584759  0.5726992231154  0.6077269425812 1.0
Al     1  0.4449032590176  0.4028156100279  0.5286047409110 1.0
Al     1  0.4251415597835  0.6231905299212  0.5153568233457 1.0
END
