TITL Al-4304-1946-6 0.0000000000 8000.0000000000 -38.8616868646 0 0  13 (C1) n - 1
REM
REM Run started: at Wed Oct 4 09:52:38 BST 2023 in /home/michal/installPacks/eddp/airss/examples/1.2
REM pp3 from code version ## 0.9.3 July 2022 commit b0220bf5cbf550a3b7
REM
REM
REM
REM Total runtime: s
REM
REM
REM ./Al.cell (8f0fc5c9d882ed20c27978dd052da9d4)
REM ## AIRSS Version 0.9.3 July 2022 commit b0220bf5cbf550a3b7
REM compiler GCC version 11.4.0
REM options -cpp -imultiarch x86_64-linux-gnu -mtune=generic -march=x86-64 -g -Og -fpre-include=/usr/include/finclude/math-vector-fortran.h
REM cmdline: airss.pl -pp3 -cluster -max 20 -seed Al 
REM seed 61140934 1096890513 791033838 590702944 -1120516924 -616194227 -378341097 -2125029337
REM
REM Al.pp (e4fc5d4412d1ecf009fcd5f92cd21f1b)
REM 
CELL 1.54180   20.00000   20.00000   20.00000   90.00000   90.00000   90.00000
LATT -1
SFAC Al 
Al     1  0.5616070752756  0.3986135702282  0.3943612744918 1.0
Al     1  0.5650709228655  0.5684561285531  0.5355911797139 1.0
Al     1  0.5648719964225  0.4591319710707  0.5584158210951 1.0
Al     1  0.3997080992677  0.4571143118336  0.4508437141623 1.0
Al     1  0.4605691405442  0.5850637132981  0.5775316806393 1.0
Al     1  0.4905999332369  0.4845785130222  0.3884332650169 1.0
Al     1  0.4563071128411  0.4687878770706  0.5777319570839 1.0
Al     1  0.5327344707539  0.5281408058368  0.6370989054342 1.0
Al     1  0.5795305999673  0.4901539550379  0.4550253817303 1.0
Al     1  0.5388156768378  0.5870233719015  0.4226881106268 1.0
Al     1  0.4971410742121  0.4176031291131  0.4827310961003 1.0
Al     1  0.4777400087108  0.5253195962708  0.4881629317882 1.0
Al     1  0.3753037890646  0.5300131567637  0.5313847821170 1.0
END
