TITL Al-4304-1946-9 0.0000000000 8000.0000000000 -44.3248941562 0 0  13 (Ih) n - 1
REM
REM Run started: at Wed Oct 4 09:52:41 BST 2023 in /home/michal/installPacks/eddp/airss/examples/1.2
REM pp3 from code version ## 0.9.3 July 2022 commit b0220bf5cbf550a3b7
REM
REM
REM
REM Total runtime: s
REM
REM
REM ./Al.cell (8f0fc5c9d882ed20c27978dd052da9d4)
REM ## AIRSS Version 0.9.3 July 2022 commit b0220bf5cbf550a3b7
REM compiler GCC version 11.4.0
REM options -cpp -imultiarch x86_64-linux-gnu -mtune=generic -march=x86-64 -g -Og -fpre-include=/usr/include/finclude/math-vector-fortran.h
REM cmdline: airss.pl -pp3 -cluster -max 20 -seed Al 
REM seed 1829567101 -491065527 1489946035 -961213547 -326290641 1954265863 291275661 -1762684424
REM
REM Al.pp (e4fc5d4412d1ecf009fcd5f92cd21f1b)
REM 
CELL 1.54180   20.00000   20.00000   20.00000   90.00000   90.00000   90.00000
LATT -1
SFAC Al 
Al     1  0.4330678826016  0.5749302509324  0.4598840126258 1.0
Al     1  0.4607796484249  0.4374481979532  0.5790745056393 1.0
Al     1  0.4614083799245  0.4821246021967  0.4005268813530 1.0
Al     1  0.5669321174097  0.4250697517081  0.5401159712827 1.0
Al     1  0.6044376065624  0.5272899670242  0.5071962841225 1.0
Al     1  0.5673206962500  0.4526812894798  0.4297674750895 1.0
Al     1  0.4785351944963  0.3971560216489  0.4741906574399 1.0
Al     1  0.4326793040520  0.5473187115655  0.5702325109959 1.0
Al     1  0.5392203527428  0.5625518011866  0.4209254795554 1.0
Al     1  0.4999999980704  0.5000000001410  0.4999999920239 1.0
Al     1  0.5385916218035  0.5178753972668  0.5994731014735 1.0
Al     1  0.3955623908291  0.4727100312036  0.4928037009996 1.0
Al     1  0.5214648068329  0.6028439776931  0.5258093273990 1.0
END
