TITL Al-4304-1946-10 0.0000000000 8000.0000000000 -40.1261813510 0 0  13 (Cs) n - 1
REM
REM Run started: at Wed Oct 4 09:52:42 BST 2023 in /home/michal/installPacks/eddp/airss/examples/1.2
REM pp3 from code version ## 0.9.3 July 2022 commit b0220bf5cbf550a3b7
REM
REM
REM
REM Total runtime: s
REM
REM
REM ./Al.cell (8f0fc5c9d882ed20c27978dd052da9d4)
REM ## AIRSS Version 0.9.3 July 2022 commit b0220bf5cbf550a3b7
REM compiler GCC version 11.4.0
REM options -cpp -imultiarch x86_64-linux-gnu -mtune=generic -march=x86-64 -g -Og -fpre-include=/usr/include/finclude/math-vector-fortran.h
REM cmdline: airss.pl -pp3 -cluster -max 20 -seed Al 
REM seed -1198813916 792397103 -1919182383 -1803689215 1545032211 -851047280 -820525276 1441597409
REM
REM Al.pp (e4fc5d4412d1ecf009fcd5f92cd21f1b)
REM 
CELL 1.54180   20.00000   20.00000   20.00000   90.00000   90.00000   90.00000
LATT -1
SFAC Al 
Al     1  0.5089175009938  0.5240748168612  0.4845369338032 1.0
Al     1  0.5937891162514  0.4693988592530  0.5307204773395 1.0
Al     1  0.6028258078308  0.5771576444289  0.5004880934662 1.0
Al     1  0.4881960955759  0.4513498916887  0.5635367319618 1.0
Al     1  0.5405747405250  0.5473840843282  0.5891511300648 1.0
Al     1  0.4035468016399  0.5315014376566  0.4557058384314 1.0
Al     1  0.5019632748921  0.6269903769343  0.5199067285710 1.0
Al     1  0.4814302495157  0.5097655512747  0.3784860200448 1.0
Al     1  0.5651013726747  0.4516828417897  0.4246024231963 1.0
Al     1  0.4330082053445  0.5488352165106  0.5616749435905 1.0
Al     1  0.4579081507860  0.4320319594036  0.4557921134913 1.0
Al     1  0.5411404192980  0.3755015453943  0.5023413464036 1.0
Al     1  0.3815982646724  0.4543258744762  0.5330573196354 1.0
END
