TITL Al-73-4250-18 -0.0000003681 60.5091826812 -53.2326560924 0 0  8 (Fm-3m) n - 1
REM
REM Run started: at Wed Oct 4 09:27:51 BST 2023 in /home/michal/installPacks/eddp/airss/examples/1.1
REM pp3 from code version ## 0.9.3 July 2022 commit b0220bf5cbf550a3b7
REM
REM
REM
REM Total runtime: s
REM
REM
REM ./Al.cell (830f3a1d18775956aa944238f1042327)
REM ## AIRSS Version 0.9.3 July 2022 commit b0220bf5cbf550a3b7
REM compiler GCC version 11.4.0
REM options -cpp -imultiarch x86_64-linux-gnu -mtune=generic -march=x86-64 -g -Og -fpre-include=/usr/include/finclude/math-vector-fortran.h
REM cmdline: airss.pl -pp3 -max 20 -seed Al 
REM seed 1868850236 2027393469 -1795610480 1112471863 277292383 400847045 1511119104 1648400578
REM
REM Al.pp (a228ffcbdc33ac12a8acef1e350d2b41)
REM 
CELL 1.54180    3.11600    4.40669    4.40669   90.00000   90.00000   90.00000
LATT -1
SFAC Al 
Al     1  0.7510971778159  0.5420233554064  0.1375214869637 1.0
Al     1  0.7510971719764  0.5420233531602  0.6375214884261 1.0
Al     1  0.2510971780493  0.2920233493903  0.3875214819831 1.0
Al     1  0.2510971779834  0.7920233495066  0.8875214915418 1.0
Al     1  0.7510971780136  0.0420233458012  0.6375214895952 1.0
Al     1  0.2510971722401  0.2920233485582  0.8875214857060 1.0
Al     1  0.7510971717232  0.0420233479405  0.1375214880532 1.0
Al     1  0.2510971721981  0.7920233502366  0.3875214877308 1.0
END
